14
Coordinates from ORCA-job orca
  C   -2.00899689997177     -0.38441349721763      0.10709251938836
  N   -0.89938462957971      0.22303251658652      0.83223047203287
  N   0.29621553544013     -0.50821106961672      0.71394641275378
  C   1.28054694447495     -0.11052263886365     -0.16631003509226
  N   1.71193897515356      1.03871560490152     -0.53608957600910
  O   1.05092057154399      2.10253507201556      0.05362922655720
  O   2.92652466357963     -1.11788602035656     -1.37389898031867
  N   1.96239003168243     -1.30812261180944     -0.68009215014982
  H   -1.82361872916776     -0.31468471403757     -0.96831404998594
  H   -2.17874052668848     -1.44495410508289      0.36199627205150
  H   -2.91957143897889      0.17562526225960      0.33601551605428
  H   -1.11086438297967      0.31144981025403      1.81935948287298
  H   0.20491859222389     -1.52362153571719      0.71687033347141
  H   1.50772029326768      2.86105892668443     -0.32880344362660
