21
Coordinates from ORCA-job orca
  O   5.04865140562270     -1.17687510124294     -0.02365794562017
  C   4.49772274123108     -1.15012972168909     -1.10174151743174
  C   3.09011279936859     -0.90386914885677     -1.28450655307929
  C   1.91392038836670     -0.69914194066046     -1.47166016562724
  C   0.49281591281591     -0.43489265180919     -1.65455710082194
  C   -0.14032935605696      0.28655770133255     -0.46850441128869
  N   -0.69408334171175      1.40880443542670     -0.67762584732074
  C   -1.37042765817769      2.09857570419836      0.34023346838647
  C   -2.40236348555375      1.62922638791523      1.06077520930042
  C   -2.93685227496659      0.26689948566027      1.02831907068188
  C   -2.23341009428797     -0.86610819394563      1.19560281709931
  N   -0.88238900415815     -0.94476149621866      1.56005662950017
  C   0.02575886204396     -0.38429071766463      0.87450426120625
  H   5.05621943735954     -1.31765428978575     -2.04463055743830
  H   -0.02388592150223     -1.39279152218173     -1.80785245513523
  H   0.32469145451406      0.17497282285135     -2.54721860141126
  H   -1.10973531986391      3.15215000446619      0.39186450178701
  H   -2.94356356918064      2.35012581893906      1.66927445390459
  H   -4.01737577986969      0.16902842127533      0.95232155215761
  H   -2.74926485278530     -1.82179304284819      1.23651345364478
  H   1.05378665679208     -0.44403595516201      1.23996973750613
