22
Coordinates from ORCA-job orca
  O   4.30939077007972      2.61396032945217      0.18373160697675
  C   3.23707989005251      2.05281840109611      0.09852284179136
  C   2.00997205527210      2.55949950796427      0.72651419960664
  C   0.79757875177634      1.98850974193326      0.66029483324945
  C   0.39065028633656      0.72322175127342     -0.03434727026058
  C   -0.19281095100671     -0.30679897543711      0.95594693745842
  C   -0.65152421472156     -1.61839312276395      0.30384607108628
  C   -1.86102853379596     -1.44999009948664     -0.61014868112533
  O   -2.21712224310528     -2.75533289931235     -1.03814956284662
  O   -3.38488188620747     -2.61515092538215     -1.88081389240367
  H   3.14550794275104      1.10385027151816     -0.47135523914793
  H   2.14413156401388      3.48451820671102      1.28136387679752
  H   -0.01748955240465      2.48855369383841      1.18423206672679
  H   1.22341032990109      0.27181163857850     -0.57971784672930
  H   -0.37193957238561      0.98000861168322     -0.78130819167701
  H   0.57135561115419     -0.53765124560477      1.70587963706740
  H   -1.02911590834111      0.14723681544601      1.50250133924934
  H   -0.91409926673641     -2.33603137417435      1.08821066314060
  H   0.17215720366385     -2.06462145796507     -0.26554977494890
  H   -2.70045860597175     -0.99101694191568     -0.06940422542673
  H   -1.63578005686456     -0.82276095561601     -1.48324328489590
  H   -3.02498161346021     -2.91624197183647     -2.72735010368858
