23
Coordinates from ORCA-job orca
  C   -2.36016361463792     -3.15254966342372     -1.80737840401753
  C   -1.29432159642540     -3.49680938013889     -0.75272932348283
  C   -0.76009148716324     -2.32242190626985     -0.07040296491894
  C   -0.32741551794640     -1.34413546943224      0.48523365418024
  C   0.19327119467507     -0.14696657277232      1.13543873425661
  C   0.26704852307114      1.07580681516687      0.19711522768598
  C   0.82206587719192      2.29978953079934      0.89032456895853
  C   1.48758555140472      3.39296082911571      0.09701560365570
  C   2.31301069389126      2.50556218819966      0.99632870451266
  H   -3.20759983731934     -2.63622228680877     -1.34886107123072
  H   -1.94655515943136     -2.49756715182988     -2.57870914982553
  H   -2.73052194918342     -4.06183068135869     -2.28999982203499
  H   -0.47267675953765     -4.04716764901329     -1.22885743246696
  H   -1.72198419782906     -4.18440384629758     -0.01168253884086
  H   1.19402529878807     -0.34901124096729      1.53860995723561
  H   -0.43260209239419      0.10249428228940      2.00298171930283
  H   0.89356158481579      0.82391027771264     -0.66687363487623
  H   -0.73433304718755      1.28180283154913     -0.19880825042348
  H   0.23846455898697      2.62627748731887      1.74919411242794
  H   1.32690956868786      4.42197222450220      0.39964931485308
  H   1.57626943859335      3.25622108987088     -0.97602861729534
  H   2.96055370035608      1.76934557416910      0.53005942040866
  H   2.71549826859332      2.93256071761873      1.90837719193558
