21
Coordinates from ORCA-job orca
  O   3.98039822524604     -0.79830675565601      2.16699910816741
  C   4.09236430913595     -0.64820705677316      0.96938363861513
  C   2.99638638551559     -0.64114418194346      0.03961365568669
  C   2.11114779304790     -0.62673609244797     -0.78411827255484
  C   1.00604607187669     -0.61333736588735     -1.73004895793851
  C   -0.30288279038499     -0.06366343532663     -1.13920462636433
  N   -0.81143591560383      0.89522108740910     -1.83939682137564
  C   -2.03184674467308      1.44794297365439     -1.41737488075621
  C   -2.27140929711183      1.75301847343965     -0.16901429424133
  C   -2.21423253788324      1.64926908071265      1.13069494229472
  N   -2.23357550964368      0.35616746071752      1.69692621274331
  C   -1.53934796200267     -0.68642354996192      1.14158659367984
  C   -0.76233256699666     -0.83288841840528      0.02858731972695
  H   5.08578628984103     -0.50338307546031      0.49738056485792
  H   1.25448370901282     -0.01150786215209     -2.60761496553265
  H   0.83519889773008     -1.64267846092790     -2.07636155838363
  H   -2.75828877332283      1.60957568268173     -2.21066369909291
  H   -2.07352462555159      2.47513081881879      1.82103069565693
  H   -2.47609576415527      0.26197931785051      2.67045765449929
  H   -1.59530514951800     -1.56713358237290      1.77686915798149
  H   -0.29153504455843     -1.81289605796935      0.03426853233037
