18
Coordinates from ORCA-job orca
  C   3.54375249814204     -1.13706003363564      0.02789882055985
  C   2.34205183718732     -1.14771859776629      0.02524470541177
  C   0.88344639298591     -1.13796356603393      0.03155529350053
  C   0.33121802039538      0.20108681715869      0.50246731283005
  C   0.08729335018764      1.33587665944603     -0.44260681086369
  C   -1.10391980658181      0.62825193180349      0.19480772345967
  C   -2.03215077366743     -0.22127864916823     -0.66215142159564
  C   -1.77741770042881      1.33526526631258      1.25757280615319
  N   -2.32876854702340      1.90025375807406      2.10452071621273
  H   4.60703940355987     -1.13117802127754      0.03063921230783
  H   0.51890979477116     -1.37458687237844     -0.97350460607189
  H   0.51632353451142     -1.93629080775672      0.68899045013980
  H   0.68178563931072      0.48178740832095      1.49054159049467
  H   0.22769011863063      1.15706521186244     -1.50390643917094
  H   0.32169684897702      2.34510758802745     -0.12611097636277
  H   -1.49493702599994     -0.67279452972180     -1.49800170173247
  H   -2.83479195584490      0.39506924375407     -1.07580546200823
  H   -2.48922162911282     -1.02089380702115     -0.07215121326446
