18
Coordinates from ORCA-job orca
  C   2.37433241345726      0.35676064348441      0.09905662187076
  C   1.04757585069354      0.69480653521600     -0.54780501082529
  O   0.87896612496845      1.69035183079407     -1.22035506491592
  C   -0.08214301320296     -0.31578482952774     -0.34438716476668
  O   0.28671883565683     -1.53234571576917     -0.97500533746345
  C   -0.74680792541697     -0.52809149396737      1.04876541805668
  C   -1.39542148936146      0.86965042776856      0.90225584970120
  C   -1.56735161872956      0.13857762308364     -0.44987736617220
  N   -1.98624291798393     -1.08169963071671      0.36761397533763
  H   2.65448139394858     -0.67647415979521     -0.12182461409318
  H   3.14550497126742      1.04827054214219     -0.24090182853588
  H   2.27436852398890      0.43432288463281      1.18826300053698
  H   0.33300972142729     -1.38174846547485     -1.92639763334383
  H   -0.30882541300554     -0.99607144175158      1.93211294026187
  H   -0.75847440057309      1.75285171431598      0.93180568859527
  H   -2.31927662989805      0.98811783620340      1.46647144560200
  H   -2.11068590260075      0.46397013308292     -1.33732688754307
  H   -1.71972852463597     -1.92546443372136     -0.14694803230289
