21
Coordinates from ORCA-job orca
  C   2.08791186271991     -0.42275236623764     -1.50796336824808
  C   1.75226066724569     -0.72135315591637     -0.03492835801408
  C   0.64083516348771      0.13338930496779      0.50426858855562
  C   0.80008202958494      1.21908598158997      1.29005956031145
  C   -0.48997878553748      1.88910721667280      1.64331167320917
  C   -1.54171377148916      0.99043065023143      0.97304423991046
  O   -2.73031114907100      1.09345537965104      1.11667746128310
  C   -0.77960000029715     -0.07523161754025      0.20165207894105
  C   -1.27538735251171     -1.07743804982948     -0.55984369362323
  C   -2.66834380875528     -1.33642831027587     -0.98059993288666
  O   -3.55980438115948     -0.52717301236242     -1.07685689809975
  H   2.40973840788657      0.61525621195402     -1.62751096551896
  H   1.22292892840553     -0.57807123779066     -2.15748871425730
  H   2.89474711300706     -1.07177711206685     -1.85911281876183
  H   2.64498883325704     -0.56635294442496      0.57905840937216
  H   1.48724089855305     -1.78012946658839      0.07207625787172
  H   1.76473530776669      1.58070855756616      1.63016035584176
  H   -0.68146930298881      1.94335502914132      2.72099906013321
  H   -0.57000795713632      2.91498295618750      1.26300516702783
  H   -0.57052435566120     -1.82189966033133     -0.92790070386471
  H   -2.83832834730662     -2.40116235459781     -1.26210739918293
