16
Coordinates from ORCA-job orca
  O   -2.29617248899118     -1.39475235283746     -0.47891001740386
  C   -1.82032542423775     -0.11213232585460     -0.71527797340786
  O   -0.98096725858866     -0.01362242179979     -1.82595396128256
  C   -0.39674547711385      0.20164624230116     -0.50944216743948
  C   0.17589782967412      1.52907613462070     -0.16528088826073
  C   1.34666565878874      1.38646093612638      0.46883385686118
  C   1.68853644721018     -0.05789653649958      0.63711860740365
  N   0.69251137202988     -0.79014004545831      1.48344280384720
  C   0.58296862757502     -0.82230143972598      0.00792176158413
  H   -2.58805664013268     -1.43894015962753      0.43911674094187
  H   -2.57836411885931      0.67261323321554     -0.63073306689976
  H   -0.33319209853452      2.46096394944043     -0.37741251722865
  H   1.95984408700785      2.19287453315203      0.85189290361167
  H   2.71882347483066     -0.39595856911825      0.63958339814447
  H   1.11157578491593     -1.66868042704531      1.78820385465749
  H   0.71700022442560     -1.74921175088945     -0.53537533512876
