25
Coordinates from ORCA-job orca
  O   3.28632813679387      1.86471943259829     -0.64669225567059
  C   2.34126359916547      1.44239786067471     -0.05791250358029
  C   2.11215334282898     -0.01845184830816      0.30640434300928
  C   1.54641531685251     -0.85784760221418     -0.85708409092437
  O   0.95001694637046     -2.08719020068966     -0.39257608491545
  C   0.03870154075827     -2.12689269385270      0.60473612867060
  O   0.08787271918635     -2.98702244270833      1.46286702801786
  N   -0.93402664294849     -1.14788099639039      0.64621777399622
  O   -1.78389993140106     -1.28932078819794      1.76382283319902
  C   -1.67063739397190     -0.61017595559133     -0.48465033677929
  C   -1.75812188690570      0.92791358562583     -0.43952939989869
  O   -2.52515827695129      1.28181923118325     -1.56244498898892
  N   -0.41049866417716      1.44457736249779     -0.53918864782852
  C   0.09840298240975      2.02375699119055      0.45856103231799
  O   1.41441494924722      2.34988496904002      0.48518484995456
  H   1.43477217204920     -0.07600253232047      1.15898463792231
  H   3.08249853045824     -0.41679297241525      0.61065581365908
  H   0.83599187815173     -0.27466680896764     -1.43832201745179
  H   2.34900591822235     -1.18888729975824     -1.51671344834535
  H   -1.47711325580296     -2.14210833682133      2.13572994805618
  H   -1.18661043906790     -0.90257854922745     -1.41638619805574
  H   -2.68200965952429     -1.02597806373567     -0.46840194668674
  H   -2.24993221051050      1.24087374617422      0.49899288112441
  H   -2.47530419029136      2.23624982093409     -1.67877826633432
  H   -0.42452448094179      2.33960509128003      1.36652091553254
