25
Coordinates from ORCA-job orca
  C   4.45308285004569     -1.45055837022972      1.71242343873581
  C   3.30753398281690     -0.67207110957160      2.38354455472895
  C   2.29317578410556     -0.21536429053984      1.43788092819191
  C   1.46804406448310      0.15538712027643      0.64147370579553
  C   0.44375653213162      0.58113921981492     -0.30532878015115
  C   -0.90810836560279     -0.14175264198050     -0.07008114057983
  C   -1.95648335225893      0.26155501801883     -1.05902266805821
  C   -2.54141651407104     -0.49436686988791     -2.00960492928694
  C   -3.57635834853935      0.22137904339575     -2.83908306332862
  C   -3.58156715840765      1.62488487949051     -2.23769384449816
  O   -4.26129752683203      2.56062747262069     -2.56008889000068
  C   -2.52399724735251      1.62652645410217     -1.09904853430537
  O   -2.24943220477458      2.57581734924533     -0.40091434751945
  H   5.18667324712828     -1.77068085077265      2.45791893997788
  H   4.96376697829053     -0.82906015973316      0.97277407711854
  H   4.07238401218675     -2.33823971878297      1.20106381147302
  H   2.83275060694579     -1.30185725261405      3.14619855385731
  H   3.71704863421310      0.19243022626326      2.92076001376299
  H   0.78256004948862      0.38726024836993     -1.33067507075669
  H   0.28368951990444      1.66159858274556     -0.22517120442147
  H   -1.25404863735333      0.10944223861241      0.93846124382963
  H   -0.75335631360301     -1.22396599926513     -0.10358629121681
  H   -2.30513958885360     -1.54146433201211     -2.17506177704949
  H   -4.57087357457045     -0.23531616787127     -2.77253171273977
  H   -3.32238842952110      0.25665291030512     -3.90521201355893
