23
Coordinates from ORCA-job orca
  C   -3.77598933956938      0.63006992000573     -0.21108603175001
  O   -2.57908915672705      0.36318319020242     -0.93026903224600
  N   -1.82110448773797     -0.60674345743745     -0.21952758381890
  C   -0.56138143851480     -0.10590266947428      0.23246543669967
  C   -0.26725676273503      1.21026998406589      0.28296273730817
  N   0.74965319696750      1.77481737333045      1.04804246391254
  C   1.99313542699108      1.63797516780861      0.78908316211564
  N   2.58209508082240      1.25251295149140     -0.39582495499574
  C   2.61111284479340      0.16240510177673     -1.03042327798379
  C   2.19359870397568     -1.24520601033079     -0.66960223631861
  C   1.44305330985147     -1.56717125810113      0.59597015730265
  C   0.22016436532059     -1.14205594278748      0.92534294198430
  H   -4.38609745485869     -0.27393959449808     -0.10076607509081
  H   -4.31672272716720      1.36993892193330     -0.80648112110716
  H   -3.56342245586254      1.04311161471174      0.78184702348800
  H   -1.68529981524797     -1.36892227502913     -0.88029197399138
  H   -0.98779494847522      1.91304800725724     -0.12324220473406
  H   2.70711990160596      2.07061354384243      1.49284749660550
  H   3.06270978889409      0.20769090284283     -2.02931945308651
  H   1.61248641613801     -1.59633375694559     -1.53529382645595
  H   3.11518405551619     -1.84196166223351     -0.71098026922649
  H   1.91576554255428     -2.30198559584942      1.24272663388863
  H   -0.26192104653483     -1.58541445658191      1.79610898750031
