21
Coordinates from ORCA-job orca
  C   1.75977890745689      0.42885274186841     -1.22211659389269
  C   1.11238073086723      0.39599644072734      0.17160364671775
  C   2.16479696436166      0.10899449702577      1.22850782990101
  O   2.40104639951164      0.80752837593957      2.18140831619324
  C   0.04386964258825     -0.68365885123774      0.26962659744868
  C   -1.00054998177885     -0.67397228952511      1.37230219277447
  C   -1.42409305270810     -0.45945169179577     -0.04755346357389
  C   -1.96293595447976      0.87412657178294     -0.51322412269740
  O   -2.10546506421886     -1.56357755329414     -0.59440528400126
  H   2.24226604566307     -0.52730600094793     -1.45338738829757
  H   2.51738473446886      1.21500967711901     -1.29239643799799
  H   1.00489983339702      0.61432516515682     -1.99112663550554
  H   0.68826747699614      1.37528870791609      0.41301049763600
  H   2.71703438471174     -0.84829403818440      1.06699216545985
  H   0.39189304212528     -1.67613957517713     -0.01138826664769
  H   -1.01776194473792      0.17535087258569      2.04802485068724
  H   -1.26355616729618     -1.62181195238766      1.82749342472632
  H   -1.80635101481410      1.00898292896253     -1.59052255146460
  H   -3.03915432962500      0.91863454716612     -0.32208450556237
  H   -1.49020688810109      1.71295728484659      0.00247742928514
  H   -1.93354376438792     -1.58183885854700     -1.54324270118870
