20
Coordinates from ORCA-job orca
  O   3.60528773251362     -0.95633300950756      0.65807927884886
  C   2.52874823493718     -1.47888103454069      0.82861756084091
  C   1.21760895225800     -0.97635108568076      0.26899441136437
  C   1.36216215649369      0.19196053099714     -0.53018701768823
  C   0.60921309911755      1.25799214203083     -0.93380578555800
  O   1.12369426805400      2.12151815259046     -1.86594765788227
  N   -0.55039816201517      1.81369393190310     -0.49313782147594
  C   -1.55476352981198      1.50394029009717      0.40271367996407
  C   -2.18200416684526      0.35118920801567      0.73352005763842
  C   -2.07374698598825     -1.01315677831408      0.32870101416239
  C   -1.03882201851684     -1.89597012525550      0.18640060264521
  N   0.27114364005896     -1.84419225815379      0.48359391667629
  H   2.39869684152303     -2.41214405409794      1.41304148005548
  H   2.39794754812947      0.28591926947384     -0.85707126825293
  H   1.95390809058050      1.76258241740559     -2.19465310527214
  H   -0.62879583056621      2.75373493808125     -0.85802117782889
  H   -1.98713591315050      2.41520985208873      0.80371878552119
  H   -3.05043884488988      0.54271012343339      1.36214611229444
  H   -3.04497576464278     -1.50347968699457      0.27918067463932
  H   -1.35732834723913     -2.91994282357226     -0.01588474069257
