18
Coordinates from ORCA-job orca
  O   1.17156944531433      0.41756662775628     -1.48204289829315
  C   1.11854856383603      0.15796963078689     -0.07828845579869
  C   0.97058826204236     -1.34093536241525      0.28178536241126
  N   -0.46014883111976     -1.65771343854705      0.46997541438636
  C   -1.31569679790639     -1.22456276968415     -0.64388671891918
  C   -1.17020260081243     -0.36207620345347      0.56014417180298
  C   -0.17734165085667      0.75713160574181      0.46422521206797
  C   -0.50814670472801      2.17592037855272      0.34591294456237
  O   -0.07003994495625      1.62780810080682      1.59780511811921
  H   1.97064683485438      0.01014508065684     -1.83252060503859
  H   1.97439018471939      0.61607955213257      0.43230151833849
  H   1.47445121754211     -1.54015431531498      1.23331394868013
  H   1.41271036869973     -1.99211559974278     -0.47926782054684
  H   -2.22063814418548     -1.81248554223120     -0.76362967341372
  H   -0.84643127241481     -0.88950189129300     -1.56406618091306
  H   -1.96352124838008     -0.26622974192412      1.29509383999163
  H   0.19286974913483      2.84566179631444     -0.14748969969542
  H   -1.55360743078330      2.47748909185763      0.31063252225824
