18
Coordinates from ORCA-job orca
  C   0.68506583531554     -1.89984932654465     -0.08051911412688
  C   -0.47701428153237     -0.98013733089724      0.21071537915757
  C   -0.91377329104748      0.07420459660362     -0.75622679340553
  C   -2.37222642457854      0.39067879426812     -0.99106397106883
  C   -0.25393455312787      0.49791933026920      0.55948935361073
  C   1.05197215819595      1.06387112967258      0.56859803898161
  C   2.16274483923661      1.54811070220535      0.58421901235784
  C   3.41207111618715      2.09196135218887      0.59942547108608
  N   4.47929314445966      2.55544227732618      0.61184900374085
  H   1.14236492779887     -2.26248774647539      0.84516646181703
  H   1.46196683587600     -1.39336307482921     -0.65901634865333
  H   0.34944631838622     -2.76942911094094     -0.65425657562191
  H   -1.27549786018592     -1.42910702963422      0.79708407492626
  H   -0.27180291347411      0.19199242916124     -1.62538040133156
  H   -2.50390724276895      1.41937940219697     -1.34042739803174
  H   -2.95723462951860      0.26914380411464     -0.07414366730751
  H   -2.79643749255152     -0.27828069240524     -1.74700186753753
  H   -0.92309748667064      0.90994849372010      1.31042934140684
