25
Coordinates from ORCA-job orca
  C   3.85707231592928      0.06747282313510      0.22360650334078
  C   2.85513591446884      0.22478313675645      1.37300588808831
  C   1.38407414647381      0.25855629353709      0.93461163683998
  C   0.87711417757652     -1.07718173952924      0.38484529066011
  O   -0.51927228879667     -1.06383621018128      0.12355367710214
  C   -0.87689435001872     -0.55181545078724     -1.13859802600004
  C   -2.38259411156687     -0.45954762112267     -1.21890257733731
  O   -2.80442659444683      0.62729711270694     -0.37416789988584
  C   -4.12057185185437      0.83376121100694     -0.33286242454007
  O   -4.96773115415348      0.20976051052856     -0.92349995716180
  O   -4.35789306954886      1.87737227037143      0.48449906373954
  H   4.88677728624973      0.11846628482568      0.59003007608415
  H   3.73087003947872      0.86148424845432     -0.52066550104443
  H   3.74329466459306     -0.89014903437079     -0.29336294561465
  H   3.07703722378720      1.15074924511979      1.91540235507540
  H   2.99861768897003     -0.58721720962931      2.09809463544712
  H   1.24504617324153      1.04657378499441      0.18393129827582
  H   0.74898169720706      0.52660319724647      1.78595000322665
  H   1.42703142278949     -1.37067761398629     -0.52180797771907
  H   1.03542872227519     -1.86592779473211      1.12904191379277
  H   -0.44037468507993      0.44180462787355     -1.31827601837685
  H   -0.52744853047697     -1.21823616098024     -1.94577456978444
  H   -2.70298697870146     -0.26477245847419     -2.24711408977086
  H   -2.84909503396643     -1.38818820956694     -0.87961784893032
  H   -5.31719082442986      1.99138575680357      0.48807749449289
