16
Coordinates from ORCA-job orca
  C   -1.27366277838333     -0.64979335415844     -1.22469951606200
  N   -0.74928247796487     -0.01721128471307     -0.04418405357834
  C   -1.57271013391159      0.53678713154296      0.99916871166141
  C   0.61185678299258      0.06712325587822      0.12686368618444
  C   1.53671602107623      0.53528121531816      1.02976517040084
  N   2.58749843167587      0.08655558657656      0.17507330370166
  H   1.59258991938721      1.03075314740061      1.97873310550146
  H   1.73952681226053     -0.84323266877020     -1.61264211360391
  N   1.61933297950155     -0.38408161701091     -0.73223292596292
  H   -2.36420026479150     -0.63223226136476     -1.19112942273543
  H   -0.95780670038437     -1.70241773748509     -1.30781790569149
  H   -0.95879986112769     -0.13534215078229     -2.14708291131202
  H   -1.38256897148840      1.61284953459716      1.13504545602266
  H   -2.62611554461638      0.40406701046333      0.74689422609986
  H   -1.38430825659411      0.04526342091200      1.96648660002547
  H   3.58193504236826      0.04562977159575      0.10175658934830
