16
Coordinates from ORCA-job orca
  O   2.74756003140316     -2.07796530664390     -1.28975553008718
  C   2.51199328095196     -1.04112881815323     -0.72643890519221
  C   1.51224748195502     -0.00632860123059     -1.21934640077924
  C   0.61286089615887      0.48470041439519     -0.11994967259911
  C   -0.71042218345226      0.33610914816902     -0.10437693452479
  C   -1.60973286356573      0.82106655514769      0.99814026378823
  C   -2.34993703992128     -0.32260163612018      1.67488368024560
  O   -2.43095470552442     -0.46932318706824      2.86638398962346
  H   3.03723313119008     -0.76717739620999      0.21763630663555
  H   0.95160102261739     -0.43557380294179     -2.05317002559224
  H   2.10934889730169      0.83298921798252     -1.61006000496741
  H   1.09928520702054      0.99132596200775      0.71314299742931
  H   -1.19624642465827     -0.17224679970021     -0.93682379030850
  H   -2.38440551932688      1.48187241321594      0.57784890582087
  H   -1.06446425569233      1.38278766922768      1.76029061786763
  H   -2.83596795645754     -1.03850383207766      0.97231250264004
