24
Coordinates from ORCA-job orca
  C   3.95039084730491      0.33436889701976     -0.79413053343654
  C   2.54856787607900      0.53225945015169     -0.23629520948650
  O   1.99354331751257      1.60686944096891     -0.31302284253491
  C   1.90409351330410     -0.66822731270884      0.44255385224731
  C   0.47875498564059     -0.42638427576598      0.94171841977843
  C   -0.56125297833086     -0.37002597939732     -0.18350814873006
  C   -1.97139554978625     -0.10140260976282      0.34650594432241
  C   -3.01831387968429     -0.02316961736367     -0.77821072764893
  O   -2.74327604497932      0.98300385942803     -1.73544258321249
  C   -4.37227971588719      0.14434318965500     -0.20845122708836
  N   -5.41702906937661      0.30747855796500      0.25936959636619
  H   4.30393253800937     -0.69483775670764     -0.70313958069706
  H   3.96288680767369      0.63318417041808     -1.84594720402121
  H   4.63950051520982      0.99751786218172     -0.26209609144138
  H   2.56801430842952     -0.94733576693876      1.27396861778012
  H   1.95013493705197     -1.52105929313545     -0.24944751508664
  H   0.20956623386641     -1.22209405844555      1.64697400718428
  H   0.45793523459195      0.51515786887238      1.50182716469518
  H   -0.29015426589040      0.41101514393957     -0.89856889539692
  H   -0.55734739526558     -1.32209009239704     -0.73265891665587
  H   -2.27914690867112     -0.88707431546654      1.04741018448362
  H   -1.99331143140890      0.84131585484712      0.90889612981667
  H   -3.01421191604258     -0.96298780956308     -1.34249225995243
  H   -2.74960395935080      1.84017659220544     -1.29231518128492
