22
Coordinates from ORCA-job orca
  O   4.71849866961362      1.27553882861937     -0.27486342029980
  C   4.53450239784339      0.28130950957274      0.39377957896596
  C   3.26215228893715     -0.35989162530966      0.58193089558638
  C   2.21615557658553     -0.93645212756024      0.77299049042995
  C   0.94205326351018     -1.60317120196617      0.99186757187970
  C   -0.27394124063510     -0.82616728030183      0.47104875890428
  N   -1.17753148492176     -0.58914210477897      1.35473314449617
  C   -2.41882506471726      0.03735344427652      0.95567698295399
  C   -2.26827746893998      1.40239019270984      0.23940788293472
  N   -1.91842140316042      1.26365471025437     -1.15982154160043
  C   -0.99808488640001      0.39106168640554     -1.63156288711264
  C   -0.24397005108688     -0.50980160022901     -0.94294987560337
  H   5.37027480511405     -0.22048610356098      0.92449305427460
  H   0.78693897224935     -1.78251089897251      2.05941717909247
  H   0.97378775530202     -2.58665916231810      0.50125954934778
  H   -3.01700583138593      0.19717360054354      1.85897166450590
  H   -2.99775193314863     -0.62847593669518      0.29981118166416
  H   -3.20993910091185      1.95646404807026      0.29177260083708
  H   -1.50950547634998      1.98968096898002      0.77009018548994
  H   -2.44205835742459      1.79657392487921     -1.83146406665316
  H   -0.84391166837020      0.46780725050654     -2.70452566235257
  H   0.51486223829730     -1.01624912312528     -1.52929326774111
