19
Coordinates from ORCA-job orca
  C   2.01677568316090     -0.84827048989124      0.48015167101603
  C   1.28111828903033      0.46642616510216      0.34051614108285
  O   0.41608476994203      0.72357865790053      1.49960983932893
  C   -0.73250461432022      0.66976543395248      0.64848490893731
  C   -1.72876410292904     -0.46163064330225      0.70041566015619
  O   -1.27687918010567     -1.42311559115259     -0.27434855522251
  C   -0.53289764911309     -0.72018247185409     -1.29521058679571
  C   0.07575678561676      0.48581356520668     -0.62114214386970
  C   -0.74827994003881      1.74027693670301     -0.38812855749178
  H   1.31485029024840     -1.67570645339711      0.61171090854427
  H   2.62787062138863     -1.03723630245774     -0.40940547675384
  H   2.68103692312627     -0.81215069455638      1.34797032825102
  H   1.98486913123773      1.29767601930052      0.20663809257437
  H   -2.74247587971449     -0.11769062075133      0.45121841306867
  H   -1.74692398405396     -0.94974161349079      1.67717093035208
  H   0.20507539300768     -1.42067834260938     -1.69330016975349
  H   -1.20398015263753     -0.42359727879752     -2.11399544526250
  H   -0.24142531598100      2.67829442779699     -0.18129706217375
  H   -1.64930606786492      1.82817029629805     -0.98705889598843
