15
Coordinates from ORCA-job orca
  O   -2.01525942128425     -0.77177284891357     -0.27712237474850
  C   -0.85477080591254     -0.00621398337847     -0.52538882257993
  C   -0.55209725093420      1.04347064190290      0.60565406320402
  C   0.61997096863484      1.83634964909440      0.04832519858155
  C   1.52525245933437      1.15241334182831     -0.41424403116110
  C   1.73011118765316     -0.30779967673005     -0.51265385688701
  C   0.35534713883921     -0.77135323903556      0.09046991840928
  N   0.10085937580591     -0.06402844692118      1.39716465159918
  H   -2.78390357081022     -0.23821406079424     -0.50482389923029
  H   -0.80302310716949      0.34233246841140     -1.56417338130487
  H   -1.37019928734152      1.57410117993554      1.09546099759892
  H   1.85204678884984     -0.68408918163768     -1.53324887085601
  H   2.56585181987473     -0.67215303774483      0.09227590934596
  H   0.27507448075976     -1.85949698942629      0.13299492112672
  H   -0.64526277629961     -0.57354481659068      1.86931057690208
