19
Coordinates from ORCA-job orca
  C   2.62635574835011     -0.13280803623276     -0.28601923894384
  O   1.58885799790969      0.13440090377365      0.65186990822287
  C   0.31312533081626      0.08600935345581      0.14025617580538
  C   -0.39115868453587     -1.22007584914390     -0.40428526905731
  C   -1.67568120187067     -0.40476132686366     -0.09129177698099
  C   -1.60376262052081      0.73087598826072     -1.13127696481489
  C   -0.11925896193726      1.08565962314505     -0.94062746522294
  O   0.53821379830477      1.93120288765989     -1.49163613518006
  C   -0.89907247599209      0.19932132937989      1.11273453678555
  H   2.52157642348715     -1.13940645452835     -0.71485620647073
  H   3.56398167869427     -0.08275400319746      0.26953607588352
  H   2.63936084731516      0.60637397009883     -1.09241320062063
  H   -0.23735789692088     -2.05502448932818      0.28254838441074
  H   -0.21041918081451     -1.53124755665528     -1.43679446983090
  H   -2.63489084858521     -0.89935622366702      0.04928237484462
  H   -2.24714427908768      1.58754853326271     -0.90835874427201
  H   -1.80487452095518      0.41029085078542     -2.15846873355051
  H   -0.79166904521878     -0.49851078369800      1.94533202151756
  H   -1.17618110843847      1.19226128349263      1.47698372747455
