20
Coordinates from ORCA-job orca
  C   -2.47668699637753      0.20037746775189      0.72452741323066
  C   -1.01361710420370      0.64615704994236      0.67635002203264
  N   -0.31227211452987      0.17731334546812     -0.52217362912841
  C   -0.40451780991787      0.90942417249914     -1.67086258574538
  O   -0.99283408740642      1.96596936344907     -1.77725430714228
  C   0.35249140738876     -1.10680863397333     -0.48697688822881
  C   1.61052949622113     -1.15365332536113      0.39748055217761
  C   2.55148019878887      0.03202405732976      0.33616606300737
  O   1.83018002455694     -2.12764309540034      1.07962850361119
  H   -3.02542682653541      0.62088135581792     -0.12130487803376
  H   -2.56363165544449     -0.88994101017194      0.69357897403785
  H   -2.94703136528363      0.54952284320774      1.64830744177400
  H   -0.95548101469456      1.73690830979092      0.68188373837956
  H   -0.47116163430275      0.26960202298545      1.54996114240187
  H   0.13656961523916      0.43295822373600     -2.51389458626701
  H   0.66677922002283     -1.36403352709716     -1.50669534659458
  H   -0.31599334877828     -1.90318108581744     -0.14282406461629
  H   2.76646046634188      0.30472032281870     -0.70269493285445
  H   3.47465817106766     -0.21223337765177      0.86137668176612
  H   2.08950835784728      0.91163752067603      0.79542068619209
