18
Coordinates from ORCA-job orca
  O   4.81789572901011      0.35799821942815     -0.31642512935345
  C   3.95384786708278      0.22394559163327     -1.14122395502652
  O   2.63538900609266      0.20730876549833     -0.89731782261394
  C   2.25974034771526      0.37309237845477      0.49887772628278
  N   0.84672076273598      0.30655027126693      0.61714361088365
  N   0.34019173216731     -0.97300103492155      0.66717040060067
  N   -0.87676895756491     -1.17853281445759      0.52762687624441
  C   -1.76989585460861     -0.02042700660334      0.26105738934561
  C   -3.16122263572152     -0.42964763227563      0.17370644188508
  C   -4.30872216356247     -0.77437232931236      0.09753382267934
  O   -5.56833926182622     -1.13402961723962      0.09122469872164
  H   4.11918164760206      0.09498023428946     -2.22245412374988
  H   2.70553169845160     -0.42725456680517      1.08936190361123
  H   2.63048371343846      1.34135297405838      0.84161110541638
  H   0.31928174446704      1.02100232898354      0.12879891737278
  H   -1.46824738141565      0.46844327587589     -0.68061169468632
  H   -1.64351231302666      0.72779917992318      1.05915786286227
  H   -5.83155568103721     -1.41269521779665     -0.79523803047572
