25
Coordinates from ORCA-job orca
  O   5.35305994280367     -1.19128175169890      0.60544837162584
  C   5.09640147315012     -0.34206487681945     -0.22057655185073
  C   3.77073540637775     -0.01926572357167     -0.67425209328604
  C   2.67151874429018      0.27772116268853     -1.08312062860442
  C   1.33690527588679      0.61212582182461     -1.55444163207137
  C   0.18488340558527     -0.07012812868324     -0.79117443594937
  C   0.29355971827148     -0.00052077035746      0.64528593220341
  C   -0.57052391486675      0.17630531112605      1.68446378129224
  O   -0.11352558601914      0.04731547696483      2.96827202800728
  N   -1.85214015448785      0.62861576708162      1.76512757485231
  C   -2.81550544620580      1.01760520612420      0.83170064538328
  C   -3.30130845855334      0.35159360611538     -0.22873226664233
  C   -2.95105011232126     -0.94468509240262     -0.76359910304945
  C   -1.77580804630496     -1.38427924060328     -1.26869809360692
  N   -0.63135539421854     -0.70088498656216     -1.55638104563388
  H   5.89600070149910      0.26496584401010     -0.69247385540777
  H   1.24066862038753      0.33352978163909     -2.60841920915423
  H   1.20828072839089      1.70139894970617     -1.49413472042633
  H   1.32820481427233     -0.06578630974608      0.97617374796203
  H   0.76586267652369     -0.34328089123525      2.94646127720281
  H   -2.08353216031402      0.86553650917132      2.71993483273406
  H   -3.30959284233835      1.94092994602523      1.12232504340997
  H   -4.16105451016355      0.83378298741001     -0.69324207377484
  H   -3.79740551671950     -1.61212182845425     -0.91730614218007
  H   -1.78327836492576     -2.37712576975281     -1.71863838303545
