5
Coordinates from ORCA-job orca
  C   -0.00000389628489      0.00000232653093     -0.00000615632394
  H   0.17818260890098     -0.67095015264897      0.84211305090907
  H   -0.27046277174841      0.98904109468096      0.37376328447649
  H   -0.81379372328040     -0.39259726945994     -0.61209959322492
  H   0.90607778241271      0.07450400089702     -0.60377058583670
