20
Coordinates from ORCA-job orca
  C   -1.25262572305951      1.62480300352348     -0.47891571245212
  C   -0.28769833335957      0.83921571845420      0.41450981629718
  O   0.88123071096715      1.61376135722031      0.66569159685062
  C   0.19239710176770     -0.46975626595619     -0.22230062908921
  C   -0.94532183063907     -1.36489898167717     -0.72545406707514
  O   -1.93163966097358     -1.63505422064533      0.25850216073159
  O   0.92276731633498     -1.25474678482916      0.72819992958331
  C   2.28352498901347     -1.20702245643068      0.78437332075839
  N   3.11316703679303     -0.39448973190066      0.29225108916124
  H   -1.47909357803285      2.59073360960097     -0.01792589495864
  H   -2.20388976425019      1.10384796215371     -0.62657913926829
  H   -0.80564660510278      1.81894910765428     -1.45847132019886
  H   -0.78302060326309      0.57221180713252      1.35737819744490
  H   0.68705462308508      2.27585766500881      1.33526054378917
  H   0.84028535406110     -0.22961365904828     -1.07719345068428
  H   -1.38317352309755     -0.92242094764978     -1.62929472758574
  H   -0.50739365428977     -2.32652479935498     -1.00704751030029
  H   -2.62458687646903     -0.97219393478810      0.19822938862048
  H   2.62316133396004     -2.05691642842878      1.37660938881550
  H   2.66050368655444      0.39425897996082     -0.16782298043982
