13
Coordinates from ORCA-job orca
  C   1.66832879976105     -0.22813401072603      0.50829174180547
  C   0.41453034980173     -0.25684158329078     -0.34293370693958
  N   0.19761636872032      0.97828832520285     -1.18068776421278
  C   -0.97050461600756      1.15917275230998     -0.67324372783804
  C   -0.97890494053336      0.02540027154243      0.33003854680337
  O   -1.99775136525464     -0.93976659152223      0.31730918775152
  H   1.73051324837423     -1.12119800006722      1.13800346662127
  H   2.56103535457697     -0.19122326873378     -0.12276443711432
  H   1.67960630763458      0.65328342727006      1.15710124069516
  H   0.38151360189049     -1.15074084543713     -0.97589757133515
  H   -1.67591733336983      1.94944980858986     -0.93340280887006
  H   -0.87944454752494      0.35662356010040      1.36873866402120
  H   -2.13062222806905     -1.23431584523842     -0.59055383138804
