5
Coordinates from ORCA-job orca
  O   -0.68555335419135      1.13851854889018      0.33220813046887
  C   -0.40156537692312      0.01980820526486      0.00687450585809
  O   0.79863425909308     -0.55984777358439      0.18817973185242
  H   -1.07884959609256     -0.69453186432734     -0.48517744472356
  H   1.36733406811396      0.09605288375669      0.62227707654418
