18
Coordinates from ORCA-job orca
  C   2.29231202676514      0.44727173677837     -0.40126356090963
  C   1.18382197145800     -0.17897414759595      0.43778576303706
  C   0.52294262331875     -1.50861865699972     -0.13301229721796
  C   -0.76619223448161     -0.70339806413743     -0.16339820083832
  C   -0.22150633442152      0.40679206124656      0.31463056238830
  C   -1.23932935964565      1.49122828304109      0.44735527021046
  O   -2.44404449022473      0.84987036534756     -0.02640016888855
  C   -2.22588331981374     -0.52375468328050     -0.41510464687552
  H   3.19868445565451     -0.16671066311372     -0.37677432263593
  H   1.98058085554663      0.55364943727477     -1.44549744540049
  H   2.55433917461334      1.44221285025809     -0.02653845686316
  H   1.52280628442157     -0.29833158453760      1.47394887913472
  H   0.91923499636647     -1.82921110669465     -1.10205604264522
  H   0.54140107282915     -2.36363082463402      0.55103072666208
  H   -1.03674821419194      2.37871111546428     -0.16971066301211
  H   -1.39411629027734      1.83570987925264      1.48070005121705
  H   -2.51874669049591     -0.65302786664132     -1.46745094017469
  H   -2.86955852742113     -1.17978813102844      0.18956949281190
