19
Coordinates from ORCA-job orca
  C   2.36183867945812     -0.27208547205246     -0.15198948674031
  C   0.87599121384503      0.03427414208690     -0.35841093459739
  C   0.41640097090746      1.24679757017000      0.41304860321710
  C   -0.88509570527983      1.52173233130306      0.50090466594224
  C   -1.87308431055320      0.61634859996664     -0.18498477985005
  C   -1.53025396193374     -0.87637892572220      0.04757515967849
  C   -0.00884840043081     -1.18208813746453      0.00919851784665
  H   2.98614865062074      0.57369327061118     -0.45743784665846
  H   2.67363039593673     -1.14556672728545     -0.73303225098693
  H   2.57317864195490     -0.47991469334373      0.90284671226480
  H   0.72148641258706      0.23936522828195     -1.42992558703552
  H   1.16232606498220      1.88133329252268      0.88553609453491
  H   -1.24380528421078      2.39049209012135      1.04518040855877
  H   -1.85771273394097      0.82139586731203     -1.26547590023835
  H   -2.89684823116883      0.81944098025974      0.14260008844971
  H   -2.06073240430497     -1.48379269497474     -0.69237607628782
  H   -1.92778265168692     -1.17001784918965      1.02369067867820
  H   0.19899705530221     -1.99825548629766     -0.69117895989371
  H   0.31416659791561     -1.53677438630511      0.99422989311768
