18
Coordinates from ORCA-job orca
  C   2.03050322042901     -0.45942890436343      0.42169296455570
  C   0.98922722068223      0.61398794165215      0.08575153249064
  C   -0.43855562791731      0.08498128229223     -0.11353010840277
  C   -1.01247221627960     -0.57970567301338      1.13889385776333
  C   -0.68517998055152     -0.66139387606893     -1.41088070492254
  N   -1.47785084958977      0.15968092650191     -2.00289903712274
  C   -1.40620030505925      1.09216418948446     -0.83001958867754
  H   2.04752647329651     -1.24975996175335     -0.33619412663062
  H   1.83580755047835     -0.93007976276613      1.38948421227234
  H   3.03325498886932     -0.02458344533083      0.46503241384336
  H   0.96879653727908      1.36944718285752      0.88250251758083
  H   1.29573962997541      1.13893383800500     -0.82684839486957
  H   -0.44741475460090     -1.47501401113048      1.41488128181568
  H   -2.05272360045270     -0.88007044437579      0.98215609717939
  H   -0.98296924758176      0.10890310836996      1.99067230786416
  H   -0.33950311177478     -1.61919007734332     -1.80516278688010
  H   -2.37950662881479      1.24599221985044     -0.35398170995283
  H   -0.97847829838752      2.06513546713198     -1.09155072790674
