19
Coordinates from ORCA-job orca
  C   -1.25803231822090     -1.70458310872071     -0.21157928826488
  C   -0.84320357368492     -0.46371610515606      0.54632138752385
  C   0.60131450125254     -0.14717634654144      0.90452409597653
  C   1.71274403386762     -0.83874632560441      0.13360907613451
  O   1.82654624168305     -0.15276036029247     -1.11084365235448
  N   0.48357666336138      0.36518358119889     -1.41073243315884
  C   -0.11927321273663      0.69389095611022     -0.11325971106488
  C   -0.52832372605318      2.13007515569379      0.09739753818054
  H   -2.29974686020308     -1.61641551245182     -0.53642926432936
  H   -1.17962209208494     -2.59935979009402      0.41536399793465
  H   -0.64894295952967     -1.84985310558514     -1.10539337466337
  H   -1.54924570044813     -0.15647644347222      1.31554719330407
  H   0.82268557086612      0.24804550382162      1.88995139751385
  H   2.67778073848432     -0.74789509537201      0.64051609273035
  H   1.50750540138715     -1.90664808915764     -0.03215567280163
  H   0.71121791387850      1.23818375743835     -1.88305698507649
  H   -1.27222046203835      2.43953009163933     -0.64570732331741
  H   -0.97784360792931      2.26514144692163      1.08491008651440
  H   0.33308344814841      2.80358078962411      0.02101683921858
