20
Coordinates from ORCA-job orca
  O   2.87322739054081      0.09575316697185     -0.55542602397125
  C   1.97688588437585     -0.49004045077962      0.38132913148481
  C   0.55762630712857     -0.35026612668601     -0.15533257871419
  C   -0.43880043407725     -1.12547174404450      0.72125923659445
  C   -1.87066677103011     -0.80209665404602      0.38178895380688
  C   -2.23454925670440      0.23597775748701     -0.37053719841830
  C   -1.25745060513615      1.23206008304261     -0.93727494800269
  C   0.12488824530455      1.11676250399066     -0.28047843741157
  H   3.76496311198887      0.04862053043454     -0.19884713333023
  H   2.21254837024009     -1.55481473469746      0.53734685206614
  H   2.04967351598976      0.00715493043062      1.36310721049409
  H   0.54791765119627     -0.79440365684998     -1.16027136343971
  H   -0.25562713803146     -0.90091388532196      1.78440785015797
  H   -0.26827558487504     -2.20518291540809      0.62130048231617
  H   -2.63112877921246     -1.47298844762283      0.77490104351463
  H   -3.28783292967446      0.39095619875111     -0.59373016049098
  H   -1.65020712975189      2.24932714870923     -0.81779014936128
  H   -1.17183315513939      1.08169359589698     -2.02385573330515
  H   0.08687336844198      1.55938804872571      0.72462816013674
  H   0.87176793842586      1.67848365101617     -0.84743219412652
