19
Coordinates from ORCA-job orca
  C   2.12546411562379     -0.10928815315761      0.28124458800422
  C   0.86714004473111     -0.97188033965792      0.16546279832190
  C   -0.45913373520903     -0.19017075830111      0.06927547726848
  C   -1.64318511763050     -1.16129977130746      0.11986822966733
  C   -0.53061876461571      0.73518852146714     -1.18566929531368
  O   -0.62647903277384      2.07712719614319     -0.64932216045797
  C   -0.64621496421724      1.92028843567735      0.69654611732103
  N   -0.56532566985231      0.76227609487943      1.20305134823657
  H   2.09318429649166      0.50188739338204      1.18652004144769
  H   2.24611771252700      0.56459976329105     -0.57362616547343
  H   3.01897122651791     -0.73850358736307      0.32787207950451
  H   0.93700039117204     -1.62570393843354     -0.71385267312793
  H   0.80224526106963     -1.63275964062725      1.03688702554146
  H   -1.59967446832261     -1.87068094222211     -0.71390425055823
  H   -1.63269613403023     -1.72611240807308      1.05543393395946
  H   -2.59151605228669     -0.61927901209068      0.06147828607937
  H   0.35600394111812      0.68562110555097     -1.82272261557436
  H   -1.41782283640178      0.55090042442704     -1.79795597712913
  H   -0.73346021391133      2.84778861641562      1.25341121228270
