25
Coordinates from ORCA-job orca
  C   3.92255184427170     -0.46921131242095      0.20516683552430
  C   2.74689512308156      0.17044143873151      0.23115894774204
  C   1.47329182533747     -0.45103841142530     -0.08751677080088
  C   0.25988545279662      0.13393859816003     -0.09532268013101
  C   0.03237009310339      1.59798216157569      0.21090336626192
  C   0.01537359829288      2.46865157955625     -1.05945626671851
  C   -0.97180989331307     -0.67248469088626     -0.43654141932697
  C   -1.78742129372462     -1.09340798597537      0.80298468809954
  C   -3.05224082542439     -1.87474977245108      0.43964572929780
  H   3.99307853530078     -1.51919964578470     -0.06412690620103
  H   4.85158179639245      0.03273867338682      0.44973193719561
  H   2.73743244706219      1.22318545224429      0.50239339696432
  H   1.52663736926507     -1.50672074225305     -0.35363120513097
  H   -0.92457742307436      1.71356249616978      0.73346882744736
  H   0.79667930461573      1.97630095797344      0.89511523783962
  H   -0.19230084211628      3.51467341591992     -0.81311930221657
  H   0.98027297469328      2.42322419523909     -1.57228498487700
  H   -0.75139271734484      2.13425276678445     -1.76487788906366
  H   -0.68404574557978     -1.57271933405245     -0.99120910775953
  H   -1.62420768565936     -0.09156184944434     -1.10328708778532
  H   -1.14691407663924     -1.69943851328793      1.45423851653098
  H   -2.06054545596090     -0.20573454751486      1.38559765830807
  H   -3.60759702647258     -2.17244055303145      1.33421420131628
  H   -2.80931440925770     -2.78512369622907     -0.11885907285690
  H   -3.72368296964600     -1.27512168098447     -0.18438864965949
