22
Coordinates from ORCA-job orca
  C   -1.45715145918455     -1.85282716902849      0.43360628616444
  C   -0.94808449822104     -0.74191809804893     -0.46648427943194
  C   0.55361390811996     -0.69499522405556     -0.85278538978596
  O   1.42003038147412     -1.31876655095409      0.07524485124225
  C   2.41336851275385     -0.36477742070005      0.45275188913448
  C   1.70869308309993      1.00846753204697      0.49343968798848
  C   0.52384294503782      0.80369199993901     -0.46905287933451
  N   -0.79011086692497      0.58501416612661      0.17324087210005
  C   -1.82915893211250      1.57482200215836      0.01016633663689
  H   -1.50635079514235     -2.80253285136492     -0.10895125226394
  H   -0.79395705810864     -1.97232188149076      1.29209918103498
  H   -2.46388292657639     -1.62154547960813      0.79686847995168
  H   -1.55376996095879     -0.68278062347366     -1.38754426811115
  H   0.80572427914052     -0.96825595127371     -1.88333772354406
  H   3.23063327560421     -0.35971883437059     -0.28558128289218
  H   2.82655354775250     -0.67879407201814      1.41401525874663
  H   1.32358591567568      1.22100844555102      1.49301661850614
  H   2.37732119111308      1.81981746283326      0.19434610892215
  H   0.50495829285946      1.50773227257261     -1.31154189428594
  H   -2.06156025020663      1.79707818046295     -1.04961277470989
  H   -1.53427514917436      2.51132812448415      0.49481371896460
  H   -2.75002243602092      1.23027497021207      0.49128145496681
