16
Coordinates from ORCA-job orca
  O   0.86996784854083      2.47536281851358      0.78452396218602
  C   0.72138189327971      1.47127262049644      0.11828345992458
  C   1.74352104142712      0.38662299987585      0.05976145354779
  C   1.36502734423088     -0.89251109606440     -0.05773777019714
  C   -0.10324211044595     -1.25842591240126     -0.14794423721621
  O   -0.59926975779717     -1.56789326647422      1.15590000159725
  C   -0.86220079657919     -0.14270208423446     -0.86536815637875
  C   -1.71093105823656      0.85630516310979     -0.13662637239859
  N   -0.40671507376366      1.22227990828349     -0.66415016959621
  H   2.76971334940341      0.67463705120778      0.26007084014636
  H   2.08108278458609     -1.70545168357635      0.02448079804314
  H   -0.23078926561922     -2.17805159477187     -0.72607054417565
  H   -0.13818808990242     -1.01275184253856      1.79470203632351
  H   -1.12056158326836     -0.36761263833461     -1.89868746223381
  H   -2.56712812214096      1.29495892377310     -0.63996858285184
  H   -1.81166840371455      0.74396063313568      0.93882974327955
