15
Coordinates from ORCA-job orca
  O   0.86096533886129      2.50700607401947      0.29964912662742
  C   0.49413376927119      1.40620783372500     -0.03239662533490
  C   1.40912771610173      0.20166394791603     -0.15895186872069
  C   0.74922418444660     -1.07344430895593      0.42059169226999
  N   -0.58521876650801     -1.32849807447682     -0.10718195242922
  C   -1.51656734959528     -0.23169448032876      0.14968990544436
  C   -1.00801764465718      1.13578740051543     -0.31903294027371
  O   -1.70007155123204      1.95820916275994     -0.86677670532308
  H   2.37356196605094      0.43229796358154      0.30393664007218
  H   1.58426541517441      0.03781244236842     -1.23213062745956
  H   0.66949627272502     -0.98261752017197      1.51084244351583
  H   1.38380421818261     -1.94122825908802      0.22063878994665
  H   -0.54307263440039     -1.52554847423615     -1.10236335908911
  H   -2.48340753981378     -0.42706317632463     -0.32096430266841
  H   -1.68822139460710     -0.16889153130353      1.23444878342226
