16
Coordinates from ORCA-job orca
  C   2.54894765925301      0.34332135131736      0.52931653547879
  C   1.58572563673308     -0.74041409065330      0.01821946531398
  C   0.23564648490161     -0.20253365022540     -0.28561712696091
  N   -0.48855733733870     -0.16664749111145     -1.35132025370548
  C   -1.46139076261298      0.55379873193075     -0.50720130952521
  C   -2.78825446344132     -0.11204812524443     -0.26499061904455
  O   -0.53512314679478      0.43592048741750      0.65129281233338
  H   2.14756029521478      0.83049835327570      1.42136637061899
  H   2.71357032749710      1.11110495857265     -0.23151833760318
  H   3.51616544512851     -0.09670266655151      0.78452861682209
  H   1.48112528789295     -1.52728597682446      0.77504474745720
  H   1.96224497691800     -1.20980768389481     -0.89435205959461
  H   -1.55303001704748      1.61000008554907     -0.77790274394446
  H   -3.37817789838148     -0.08596317515265     -1.18566856966690
  H   -2.64289669995754     -1.15399407988483      0.02933794281463
  H   -3.34355578796475      0.41075197147980      0.51880052920623
