20
Coordinates from ORCA-job orca
  C   2.52825206426627      0.08321349133552      0.35612430606507
  C   1.21091805908443      0.32779186046551     -0.36993118289275
  C   0.42275102121530     -0.96326821360267     -0.74494572967257
  C   -0.52574814047751     -0.71270731545440      0.45944711618656
  C   -2.02586377192687     -0.77247997286423      0.26124477166984
  O   -2.49111371550984      0.21014357262410     -0.67881364338606
  C   -1.88899900567908      1.42566642610788     -0.61360756075523
  N   -0.80401871629724      1.75783548138484     -0.05357890669858
  C   0.02349756382109      0.74030097693342      0.56607941266936
  H   2.40204245870921     -0.60888498915735      1.19643810048545
  H   3.27282483362936     -0.35069523369142     -0.31934250453851
  H   2.93790499909431      1.01793939471174      0.75236134360972
  H   1.35434601000960      1.03328232396343     -1.19185688660688
  H   0.98704297154096     -1.89900620012018     -0.72743643670331
  H   -0.08908404734278     -0.88555705158279     -1.70757793931866
  H   -0.25416959328015     -1.32560031228973      1.32357370055732
  H   -2.53623240876410     -0.59115754405943      1.21681639435200
  H   -2.36205893366886     -1.73550813958225     -0.13141733024497
  H   -2.48006255632321      2.16273553773650     -1.15525268818321
  H   0.31776990789911      1.08595590714152      1.56167566340541
