14
Coordinates from ORCA-job orca
  C   1.22039633721671     -0.73066692800432      0.27555062560451
  C   1.54532480449209      0.36203837331566     -0.41838036878079
  O   0.68392641798129      1.33636349268273     -0.82367966465387
  C   -0.62707479681872      1.25667229249983     -0.25210559641140
  C   -1.15046294110751     -0.17569077016741     -0.21077767835522
  C   -0.20829944719614     -1.05163770019768      0.62852184718976
  H   2.01082246061349     -1.42105051130581      0.54610459041490
  H   2.55630415122667      0.58615797286663     -0.74242511213487
  H   -0.58884611531994      1.67791652496952      0.76304125304555
  H   -1.25633853773759      1.90463354267184     -0.86705023542995
  H   -2.16928314510628     -0.17591691760997      0.19059390393973
  H   -1.20331368018900     -0.56228028498773     -1.23475444275029
  H   -0.39647311826892     -0.89390706856948      1.70009466630389
  H   -0.41668238978613     -2.11263201816380      0.44526521201804
