4
Coordinates from ORCA-job orca
  C   -0.00143050083218      0.00025746020938     -0.00027726811858
  O   1.14410706511285     -0.21266064852411      0.29051506174429
  H   -0.72934393765215     -0.81569478195800     -0.19768999086599
  H   -0.41333262662852      1.02809897027274     -0.09254880275973
