24
Coordinates from ORCA-job orca
  C   -3.25876063638325      0.08444905678340      0.23874442204848
  C   -1.78704147009335     -0.23803965065698      0.45806095859211
  C   -1.05613205668329     -0.63986404824599     -0.85268606592681
  C   0.09838473584326     -1.59582983959907     -0.67332470246551
  C   1.41213737930535     -1.35803933333508     -0.66639822114048
  C   2.14208133236703     -0.04627238968446     -0.81856329016728
  C   2.68507033074071      0.55037573350314      0.51595247101639
  O   2.13970278245968      1.85244862340441      0.83509458976788
  C   0.80604658506899      1.88362315267855      0.99227816221978
  N   0.15685224832244      0.79430434476623      1.05822013326378
  O   -1.23159418969651      0.95896444198492      1.03607862450500
  H   -3.79939055418923     -0.80792104198311     -0.08824016925369
  H   -3.71245474103852      0.44375804896633      1.16623342955573
  H   -3.37409152836380      0.86187448860199     -0.52299673054947
  H   -1.68722736893285     -1.05329514501239      1.18918579252683
  H   -1.79767402775523     -1.12552799760046     -1.49925891394975
  H   -0.75577210839660      0.28099461850827     -1.36238568720477
  H   -0.20924622188744     -2.63020108078678     -0.52030113732032
  H   2.06537196494936     -2.21645116567441     -0.51259469111832
  H   1.52114151241019      0.70810875886045     -1.30747359688336
  H   3.00216370950019     -0.20499363634639     -1.47988456638898
  H   2.49665987386056     -0.13371840445724      1.34892789365040
  H   3.75682097354456      0.74323426189254      0.44912455159519
  H   0.38695047504777      2.88801920343215      1.01620774362717
