19
Coordinates from ORCA-job orca
  C   2.31863072225712     -0.11154516539792      0.06233720128122
  C   0.86038191110110      0.15065455148595     -0.33291559565659
  C   0.18100928613771      1.05800945462543      0.69873459418956
  C   -1.30778869869101      1.33697632026203      0.62126102542261
  N   -2.29169081208735      0.68068752920695      0.16868330446479
  C   -2.23472309701635     -0.59103189285637     -0.50636654925766
  O   -1.09871573665562     -0.94779845428799     -1.26038536803804
  C   0.09804875008773     -1.15803120253469     -0.53733290543993
  H   2.86856090335090      0.82522102880013      0.19277190213511
  H   2.83573757087850     -0.69811407229160     -0.70298515257078
  H   2.38101742303334     -0.66473804711792      1.00662592167218
  H   0.84354810734955      0.65989959332521     -1.30452831414028
  H   0.69333241791000      2.02768266416489      0.72487202124284
  H   0.34095064344728      0.63392900888942      1.70490378193803
  H   -1.57531843710269      2.26709586368886      1.13818622765594
  H   -2.44797485967991     -1.35728954318432      0.26101303522643
  H   -3.05608330359418     -0.61090330104632     -1.22791685623725
  H   -0.10789371311313     -1.64966255903978      0.42900424637035
  H   0.69897092238701     -1.85104077669195     -1.13596252025853
