14
Coordinates from ORCA-job orca
  C   1.58395011327552     -0.15321575963370     -0.46490618568826
  C   0.12727986689721     -0.01954368746396     -0.13482275971664
  C   -0.73859403532104      1.20459448399548     -0.43336178963449
  O   -1.48265821455208      1.04048276712351      0.80552611633690
  C   -0.64824183710383     -0.06462367294491      1.16346518960447
  C   -0.80084862116370     -1.18039785123754      0.17513287289949
  H   2.03728205116332     -0.98562297442638      0.08163689651547
  H   2.13660030025851      0.75712162930072     -0.20883523543198
  H   1.73277016104740     -0.34513291929284     -1.53415969121694
  H   -1.38609504393488      1.17564157565452     -1.31808580351370
  H   -0.17644314726926      2.14611274887228     -0.41754459788996
  H   -0.34991649097224     -0.17160391076029      2.20079976279899
  H   -1.74661354249688     -1.30080559443801     -0.34715257963126
  H   -0.28847055982804     -2.10300783474889      0.43230780456790
