15
Coordinates from ORCA-job orca
  C   1.86542180284668      0.80578156750867      2.79732242194323
  C   1.15529055640231      0.09501420084770      2.13848218396126
  C   0.29832335792986     -0.75568423566226      1.32427080629279
  C   0.14747515831718     -0.23156062926363     -0.09792261096974
  C   -0.95640239799616     -0.84348197404277     -0.98908098926922
  N   -0.82515404692256     -0.02373128293051     -2.24216810320957
  C   -0.75866321442755      1.11147378116268     -1.67466509972993
  N   -0.83231622314445      0.96922145434433     -0.19381565575961
  H   2.48979535872313      1.43530922582019      3.38418796044950
  H   0.72802856675563     -1.76495001755543      1.27065023218900
  H   -0.69289644465427     -0.85012936292788      1.77693442424029
  H   1.11545260781532     -0.03716098602155     -0.56504760151156
  O   -1.91247906376746     -0.09729870874399     -0.20975484980846
  H   -1.18336241725410     -1.89842836434129     -1.13801474779161
  H   -0.63851160062354      2.08562633180575     -2.13174737102636
