19
Coordinates from ORCA-job orca
  C   -0.53704763378017      1.69644377700504     -0.42476463375191
  C   0.02358618172601      0.28061509949951     -0.54297375857373
  N   -0.81290119257032     -0.53985687819834     -1.39664001798287
  C   -1.74716272701415     -0.99282373100188     -0.63753580189740
  O   -1.93009587229721     -0.84968602585282      0.70624094898999
  C   -0.82510689614276     -0.36074290723436      1.58929483955996
  C   0.36913333834824     -0.49053470150411      0.70973538785145
  C   1.47368230736500      0.21491975666004     -0.08479795687240
  C   2.46817292262419     -0.69866523885815     -0.71612976262398
  O   3.61315661563227     -0.38711431271167     -0.93185580603209
  H   -1.61001206144050      1.68969629859396     -0.21526930076695
  H   -0.03291958819971      2.27858821218955      0.35102015390277
  H   -0.39191772726839      2.21024472004891     -1.37952167315245
  H   -2.55746815110609     -1.59004474952604     -1.05070472413166
  H   -1.07601942041313      0.65233116986364      1.90629004305908
  H   -0.85781343243728     -1.03269078757113      2.44935012705957
  H   0.45761970455225     -1.54783530278452      0.45388719557702
  H   1.90317908652701      1.16355991779477      0.21835788374072
  H   2.06993454589476     -1.69640531641238     -1.00398314395513
