19
Coordinates from ORCA-job orca
  C   -2.12246803335358     -0.55475824088637      0.48065736769184
  C   -0.61247621034248     -0.64235629988701      0.44809767262158
  C   0.12445059656057     -0.42408067078924     -0.85662434235526
  C   1.49185508822588     -1.07216119368680     -0.99764712417958
  C   2.22884227439109     -0.45448007097989      0.17806260986343
  N   1.59474224863326      0.42630452540687      0.84579884397026
  C   0.26146724699172      0.58543034024983      0.28093475397930
  C   -0.26513988482431      1.99679391056807      0.29631860867005
  H   -2.48626987090233     -0.25923266350754      1.47026026981351
  H   -2.56669325715587     -1.52653969932485      0.23957837627745
  H   -2.50712308531588      0.16624318616813     -0.24544190271957
  H   -0.19620305006415     -1.39765211483426      1.11300577427934
  H   -0.46145017703515     -0.20422306496563     -1.74247333135850
  H   1.47186577123405     -2.16704305373067     -0.93461983737847
  H   1.98682120881539     -0.82106800565051     -1.94496476027164
  H   3.24030385910520     -0.74524041611093      0.45955592525555
  H   0.40818713903958      2.66399939740910     -0.25087446190596
  H   -1.25321673952137      2.06340374835497     -0.16351564155413
  H   -0.33749612448162      2.36666138619673      1.32389219930081
