16
Coordinates from ORCA-job orca
  C   1.56261483703964      0.54184936080526      0.70090784776405
  C   0.69520847890172      0.44846090931154     -0.55144999356733
  C   0.03864946450321     -0.91720395991844     -0.76334055128525
  C   -1.06658731146560     -1.13274945538979      0.27442303790032
  N   -1.96020647929712      0.01637587407074      0.39470025819028
  C   -1.52974726941047      1.14016911781279      0.00103903378384
  O   -0.31850802004739      1.48093708214504     -0.50570002277636
  H   2.39391552370805     -0.16727951394474      0.63572822453456
  H   1.97455569207173      1.54902667120015      0.80249029544625
  H   0.98770539962616      0.31779852931892      1.60376213918077
  H   1.30103979997788      0.70921777357465     -1.42478117886535
  H   -0.39772321506464     -0.94530467370175     -1.76780040142556
  H   0.79608451728465     -1.70634793583553     -0.71519980506092
  H   -1.67173501928007     -2.00756495428200      0.01446199261494
  H   -0.63878614531548     -1.35055773151731      1.26205126897145
  H   -2.16647825323226      2.02317290635047      0.03870585459431
