17
Coordinates from ORCA-job orca
  C   -2.83473598699476     -0.85494056887139      0.52361620071281
  N   -2.31228689567329      0.49932023146465      0.56687301439729
  C   -1.06740341936076      0.66874861451797      0.35961329723126
  N   -0.56444781146472      1.99209846247769      0.40561884365569
  C   0.68158457673515      2.15981343443354      0.19856736749301
  N   1.56476890974787      1.12803196534999     -0.06572843617201
  C   1.06160252663026     -0.16020852567430     -0.10863235552944
  C   2.04756213176711     -1.25126877933839     -0.41022173252534
  N   -0.18036833627413     -0.40890639189425      0.09001943139093
  H   -2.67513513379734     -1.33267045621525     -0.45223845012436
  H   -3.90961933516982     -0.82571493159462      0.72064962735080
  H   -2.36343289501954     -1.50685116343465      1.27113202355354
  H   1.12200721093993      3.15535964629855      0.22214056229588
  H   2.54256595961385      1.31042577390383     -0.22232559111182
  H   2.43164690946988     -1.14981762211260     -1.43164386666351
  H   1.55220866848833     -2.21583867620552     -0.31140806749070
  H   2.90348092036197     -1.20758001310526      0.27199413153596
