24
Coordinates from ORCA-job orca
  C   -0.78208534984099     -1.69184343901435     -1.45993828207471
  C   -0.43865181678332     -0.62868609150976     -0.39964338270690
  C   1.05744793992421     -0.26910617225765     -0.58214354033947
  C   1.66221206017058      0.72946261839884      0.41779385007683
  C   3.16669044020210      0.77224505967240      0.28609375340718
  O   3.81193329523484      1.76085052975241      0.04327883999088
  C   -1.39477375747495      0.57757437297535     -0.57518395406359
  C   -1.63493600156406      1.32161307113744      0.73299900170401
  O   -1.98956107200814      0.42095056239487      1.79314912232476
  C   -1.33161366516699     -0.76124002468179      1.79678495134905
  N   -0.59986970229727     -1.28199514223625      0.90446244066870
  H   -0.12892941923012     -2.56090861705750     -1.35124975819477
  H   -0.66645557158240     -1.28689421169312     -2.47073521737362
  H   -1.81507380745166     -2.02917319644829     -1.33933259266676
  H   1.61713165688754     -1.20889894458281     -0.51155700551158
  H   1.19902995162366      0.10801949430140     -1.60199228746706
  H   1.28295661646238      1.74504339072190      0.28271301144066
  H   1.43203827199645      0.39287412133227      1.43792812861069
  H   3.66555882617747     -0.21538493179183      0.42988354233297
  H   -2.35944313399507      0.20839326060741     -0.93895254527935
  H   -1.01908460181165      1.27629957264596     -1.33029935589734
  H   -0.75178491944302      1.88356071096426      1.05205926884653
  H   -2.46875548711367      2.02157378371438      0.64895145976196
  H   -1.51397975291591     -1.28432977734556      2.73493055106096
