12
Coordinates from ORCA-job orca
  C   2.01332904415383     -0.23654712785611     -0.49780065557379
  C   0.70453317744198     -0.42196148750874     -0.27511154437277
  C   -0.70069462453700     -0.89673083589888     -0.11800563680142
  C   -1.37902436756969      0.45057073838256      0.42618681119155
  N   -0.34866747184850      1.53791101781278      0.53242075961153
  C   0.69759037735732      0.96045157474045      0.13845450930138
  O   2.06100042776783      1.17157858921167     -0.08796151876781
  H   2.91900202053623     -0.71970817324090     -0.83404479753038
  H   -1.16021660189950     -1.22363248107395     -1.05521594115884
  H   -0.80842213384697     -1.71487242546885      0.60003946056052
  H   -1.82458521213506      0.29999465154905      1.41346720481410
  H   -2.17384563542048      0.79294595935093     -0.24242765127406
