11
Coordinates from ORCA-job orca
  O   0.15224825419191      2.24689752225975     -0.70639037063288
  C   0.07472999834388      1.10747047311927     -0.34740364295784
  C   -1.01647582707684      0.02751906509407     -0.46183775769384
  C   -0.06381843255706     -0.95080326850058      0.29741364986951
  C   1.02869558259328      0.16092800964175      0.40381362429691
  H   -1.94601765106564      0.28979126485988      0.05133124795980
  H   -1.25935705141276     -0.24046768247877     -1.49396490253327
  H   0.24037355619117     -1.81993958847174     -0.28667965953159
  H   -0.44871421140878     -1.29080286856517      1.25930273794770
  H   1.96400077067919     -0.03026655568667     -0.12982375681199
  H   1.27433501152164      0.49967362872822      1.41423883008751
