16
Coordinates from ORCA-job orca
  C   1.94600747299941     -0.54985507743591      0.53869631175386
  C   0.61342777264288     -0.17620092994462     -0.05285559829593
  C   0.34272402431473      1.19844279889538     -0.61453474254708
  C   -0.43127538244395      0.72398704824394      0.59501892354192
  C   -1.76835822027935      0.05363381213949      0.32628718763550
  C   -1.34525414387168     -1.10720410583855     -0.55541245311570
  N   -0.09324088414937     -1.24304420414401     -0.74927976194908
  H   2.62264886436657     -0.90543204244318     -0.24475948279394
  H   1.84107760274301     -1.34964217223041      1.27905768710872
  H   2.41121172241514      0.31001870023930      1.02869207894629
  H   -0.16556030965271      1.26299653111828     -1.57267325016949
  H   1.09497031566403      1.96434908074775     -0.45373935797484
  H   -0.25579522160617      1.20827940502263      1.54871104156941
  H   -2.49383838866573      0.69881433263469     -0.18525779725660
  H   -2.25926241575526     -0.30330320266429      1.24095523230501
  H   -2.05948280872153     -1.78583997434049     -1.01979401875805
