21
Coordinates from ORCA-job orca
  C   4.26910905723826      0.23811469837150      0.37222454839677
  C   2.88094539946858     -0.32428331387840      0.40835908624917
  C   1.77778488056325      0.36794101592573      0.68349383252681
  C   0.40970001601406     -0.22575726973925      0.75050241780750
  O   -0.45127357470519      0.49238496816179     -0.14713457292064
  C   -1.73978842468664      0.13339721953301     -0.09328254482784
  C   -2.48997527983634     -0.75349377563822      0.58519571792879
  C   -3.76687979089628     -0.31021371389108     -0.11416069488259
  C   -2.87085918409423      0.71755519265878     -0.89850158974369
  H   4.72335463242843      0.09728011386495     -0.61586257793436
  H   4.92195917032799     -0.27199266608948      1.09060613899439
  H   4.27757835839353      1.30651808180749      0.60280100880037
  H   2.78879149143881     -1.38914253212397      0.19330979998283
  H   1.84012253598641      1.43459244980000      0.89347526456526
  H   -0.00989768996535     -0.14417307063711      1.76459854497979
  H   0.42071511610768     -1.28889012714907      0.47705886083708
  H   -2.28898661007114     -1.50403610678607      1.33758305373098
  H   -4.52855393694091      0.15450224540089      0.52138460471080
  H   -4.25251602386150     -1.05792599672817     -0.75069745729212
  H   -3.09502947591532      1.77175531639290     -0.70864985242769
  H   -2.81629766699411      0.55586827074376     -1.97940658948163
