17
Coordinates from ORCA-job orca
  C   1.35413331368750      1.41941071037235      0.54923723928524
  C   0.68141254059409      0.11615315835390      0.27221130005955
  O   1.23471131303586     -1.07653574408016      0.85476537810148
  C   0.99364168924603     -1.05392749563865     -0.56660103696564
  C   -0.47452349200908     -1.41282965418515     -0.76588620777754
  C   -0.85210011624828     -0.19529634657227      0.18668580205259
  O   -1.47130835459578     -0.48340503028773      1.39580941534181
  C   -1.61934047668577      0.86922737677382     -0.56257047131939
  O   -2.59149347618874      1.44558398696389     -0.15370002332185
  H   2.43918044232689      1.30636317456993      0.49068431163001
  H   1.03931180941780      2.18329612233864     -0.16767247654271
  H   1.09444283490639      1.77164671433210      1.55260502062965
  H   1.84114217848510     -1.24717745921999     -1.21388030473070
  H   -0.78762236197635     -2.38788564156088     -0.38728030455666
  H   -0.82586791065981     -1.28287969348868     -1.79292449760060
  H   -0.86281772467292     -1.05891240038182      1.87891858609075
  H   -1.19290320866291      1.08716822171069     -1.57040173037600
