14
Coordinates from ORCA-job orca
  C   0.70372157929841      1.11989642535660     -0.16883273044543
  C   1.40752490711484     -0.00815323935883     -0.10378293973058
  C   0.76997939907366     -1.32425196001959      0.24471960567632
  O   -0.55342328905953     -1.19464430611816      0.73066163203451
  C   -1.33323012393407     -0.29521137144736     -0.04260246708341
  C   -0.78563200932811      1.13047046959003      0.04953725820675
  H   1.19248222634032      2.06416274561915     -0.39335141188158
  H   2.47690742022470     -0.01994979302122     -0.29750593879986
  H   0.79527161175325     -1.99870893838278     -0.63255029892282
  H   1.33450316217561     -1.82621315902729      1.03946261614883
  H   -2.35189188422687     -0.36515017995699      0.34794733140158
  H   -1.35022201263233     -0.61710319631988     -1.09722048033124
  H   -1.27795546831391      1.76179266192499     -0.70181315688439
  H   -1.02803551848598      1.57306384116135      1.02533098061133
