14
Coordinates from ORCA-job orca
  C   2.75326390125540     -0.79472749033761     -0.65799695464665
  C   1.61619425387530     -0.68596509799359      0.01914900579855
  C   0.40699355874353      0.07596567952330     -0.44896962841967
  O   -0.60092887401491     -0.04042143892831      0.55010593469534
  C   -1.77103324028191      0.59761638064548      0.28525236244073
  C   -2.80104698959688      0.58805068366139      1.12578871681552
  H   2.89692736881637     -0.32650409433509     -1.62815485566662
  H   3.59214245163834     -1.35905951518985     -0.26762095791498
  H   1.49767841858697     -1.16310849941185      0.98835482888015
  H   0.03547494060148     -0.32599399142952     -1.40361826683738
  H   0.65119561615792      1.13642469936927     -0.61233037136808
  H   -1.81035448692605      1.12189734429100     -0.66869300938309
  H   -2.75468314500055      0.06491191149307      2.07326625875254
  H   -3.71182377385500      1.11091142864231      0.86867093685365
