23
Coordinates from ORCA-job orca
  C   -3.27894093809111     -0.77329460041106     -0.24690061781780
  C   -2.11225015919450      0.21698462385419     -0.22642861057683
  C   -0.75989174567025     -0.44627999205283     -0.51631940294837
  C   0.39776587838198      0.52933765251071     -0.50667689865675
  C   0.98113268684728      1.18029681332000      0.74230997927814
  C   1.09872964930169      0.14910433669752      1.85472404264264
  O   1.78034240753407     -0.78478636384279      0.97564482222055
  C   1.79835263235827      0.19865835351676     -0.07920606829144
  C   3.04866570009224      0.27463924351083     -0.89359826750663
  H   -3.14086832756379     -1.56196884194341      0.50059093150028
  H   -4.23075267660033     -0.27697194891781     -0.03465275951777
  H   -3.36889531086209     -1.25967042851371     -1.22416741690022
  H   -2.29290567149120      1.01328309224530     -0.96015175800128
  H   -2.06609335843916      0.71415935300223      0.75042821545262
  H   -0.57198811406992     -1.24638874077513      0.20791746410368
  H   -0.79713186889362     -0.93606088536640     -1.49846581535218
  H   0.38874964388668      1.23856697267621     -1.33438308689657
  H   1.08050488656381      2.25113810855627      0.86790508254198
  H   0.17611588100519     -0.26946818286848      2.27442380421300
  H   1.76072336464882      0.46090398691314      2.67011361857392
  H   3.21791223073103     -0.68064559895550     -1.40269001952343
  H   3.92015273289504      0.48128840874886     -0.26512853993618
  H   2.97057047662986      1.05488263809511     -1.65528969860137
