25
Coordinates from ORCA-job orca
  C   2.84024966736337      1.99012755212421      1.15862497296316
  C   2.63528342831489      0.80478959299940      1.14321302656073
  C   2.50098399276589     -0.61429692711158      1.20180431175612
  C   3.32375817167901     -1.34006943283543      1.98138763151445
  N   1.56766013551424     -1.25137058796559      0.37057630723854
  C   0.34864008025717     -0.78179148423458     -0.07826542006416
  N   -0.07809269210960      0.39852654997512      0.09698285457957
  C   -1.38495634578711      0.74174587880239     -0.38745706161501
  C   -1.55005734680651      2.22666095534265     -0.61235894337458
  C   -2.56277359936797     -0.06532330222880      0.13200381500040
  C   -2.08451386255177     -0.24803434627187     -1.28736425458282
  C   -1.28439464547854     -1.46544680185619     -1.67949915566695
  O   -0.29333547970128     -1.81830867263044     -0.70000323715420
  H   3.00719206365191      3.03990731953775      1.16495654737942
  H   3.23955127959114     -2.41949435512765      2.04154959661426
  H   4.10197562183394     -0.85648187103317      2.55321232200876
  H   1.67648477509912     -2.24804627146738      0.26942734228192
  H   -2.56256444624480      2.46655323339222     -0.94997504405968
  H   -1.35361183757649      2.77088084580967      0.31618578736285
  H   -0.83997081176853      2.58224678799918     -1.36553988748783
  H   -3.50886801598437      0.44176619245057      0.28958012193320
  H   -2.34767396279868     -0.84891749035846      0.85106254547053
  H   -2.70951616617196      0.13910573690145     -2.08771019534613
  H   -0.77648962832807     -1.28503078870171     -2.63651452519594
  H   -1.90496137539503     -2.35969831351178     -1.78588045811662
