25
Coordinates from ORCA-job orca
  C   4.12155347741598      4.53617274540558      2.10908524339122
  C   3.19408620039208      3.77927361408202      2.26295382495914
  C   2.10143633506559      2.91473709577836      2.46966661635882
  C   1.85994468162443      1.81148150226674      1.72755078453715
  N   0.77692841968852      1.00596096490011      2.00942284531823
  C   0.59286574467515     -0.02144816802516      1.26660573900144
  N   -0.45656142868191     -0.90233255072867      1.59783159867542
  N   -0.97163912179820     -1.66653844205783      0.75747173514188
  C   -0.65326218772878     -1.59576753629084     -0.67104906260473
  C   -0.44356423562336     -3.04608263029762     -1.08587852845386
  C   -1.71014498750602     -2.34873988027750     -1.50111734146286
  C   -3.01250525362509     -1.80372184777090     -1.02607211851021
  O   -2.85009256466749     -0.33020845133100     -1.24342232713978
  C   -1.62901442028096      0.22176952562578     -1.40633322561405
  N   -0.45200768332163     -0.28235210277061     -1.22687568076813
  H   4.93935995631464      5.20074417435044      1.96846725439768
  H   1.41148260220410      3.14495499187797      3.27720268420936
  H   2.52464458958471      1.55011582352772      0.89991680495480
  H   1.26751088528114     -0.31188415515127      0.45340897621893
  H   -0.40357300988108     -3.74222794173737     -0.25733948602215
  H   0.20642015139320     -3.28749061701450     -1.91917616242336
  H   -1.58370289077924     -2.05545021766493     -2.54189548262254
  H   -3.21756240521390     -1.96324957756538      0.03159612811123
  H   -3.88174486935477     -2.05674906964201     -1.63467107328379
  H   -1.73085898517710      1.24903175051087     -1.75042374636984
