18
Coordinates from ORCA-job orca
  C   -2.63565502685852      0.89378879017977      0.72723024209856
  O   -1.95516919626609      0.62071403084706     -0.48746686019210
  C   -0.90395914246289     -0.26937957809534     -0.33448764246680
  C   0.24246921354046     -0.17805146535100     -1.30242494897678
  O   0.87934722345462     -1.33297057146638     -1.74048252555276
  C   0.44046766689034      0.20942962524201      0.15302120613342
  O   1.11237510437159     -0.65690325120243      1.02206221744337
  C   2.47651708890185     -0.59948806607334      1.03106732272569
  N   3.26978224990646      0.11461286815513      0.36023359764594
  H   -1.96106918364202      1.32436339708974      1.47949790887496
  H   -3.09004872031222     -0.01509856815536      1.14561972046050
  H   -3.42354421670825      1.61289233959660      0.49759764541832
  H   -1.15724914743330     -1.28056649506360     -0.00753039345855
  H   0.20672680947632      0.65954050080144     -2.00020935339461
  H   0.30439733147447     -1.77885021175160     -2.37187157868520
  H   0.56153283461259      1.26954634562105      0.36606704620499
  H   2.84520456236645     -1.30611143599540      1.77318943568686
  H   2.78787454868813      0.71253274562164     -0.31111103996580
