14
Coordinates from ORCA-job orca
  N   -1.60398226174577      1.99071089337018      0.09457163010538
  C   -0.81464685065698      0.99515859804902      0.04898434946430
  N   -1.27807703465493     -0.33418411543967      0.16045791495137
  C   -0.69428824803638     -1.57167578791772      0.14851067010152
  N   0.52434362225504     -1.95486670720096      0.02606183764275
  C   1.59354540992706     -1.10873042009023     -0.13349360547699
  C   1.68663273324916      0.24164353417246     -0.20278766096339
  C   0.67914607507900      1.29303429896782     -0.13360205264701
  O   1.00313523025606      2.46094063262039     -0.22099337349182
  H   -2.58045317688554      1.71265790257671      0.21767742914532
  H   -2.28275093399290     -0.37437288170134      0.27714875175676
  H   -1.44542121186877     -2.35317437424209      0.26895149553728
  H   2.53168917259514     -1.65395961324565     -0.21714683146915
  H   2.68112747447983      0.65681804008109     -0.33434055465631
