9
Coordinates from ORCA-job orca
  C   -1.32800727438624     -0.01511323915782      0.48462293251017
  C   -0.14344893591332     -0.12527226494434     -0.45877566336377
  C   1.17173161616452      0.02747709066930      0.13837456714761
  C   2.25849717452477      0.15939218417512      0.64062375159072
  O   -0.27561838831083     -0.33163910515123     -1.64675415093277
  H   -1.87916619305096     -0.96003078661913      0.46690305192714
  H   -2.00165439267111      0.76344766948826      0.11621370732127
  H   -1.02835602278281      0.21111087177092      1.50841301902307
  H   3.22602241642600      0.27062657976891      1.07002578477654
