16
Coordinates from ORCA-job orca
  N   1.78463123054903     -0.32040166349500      0.87911625991411
  C   1.42987039950455     -0.55089904661011     -0.52242916058620
  C   0.34250042129588      0.42860518566821     -0.99157355008611
  C   -0.88153928251221      0.41154267529573     -0.15083317425442
  C   -1.73073057594633      1.28354822654501      0.40521524982162
  O   -2.59783086768801      0.39107707445206      1.02610429787216
  C   -1.73521249674956     -0.67257457650649      0.47928840195103
  H   2.14584639876065      0.62198603817016      0.99877379403427
  H   2.52918584236826     -0.94969299427450      1.16247789282613
  H   2.28083550271818     -0.48129943659193     -1.22101198703693
  H   1.04608357886760     -1.57548494861483     -0.60237115202148
  H   0.10551975220375      0.18153975967534     -2.03689520972635
  H   0.75043750364522      1.44772530193284     -1.01065028180827
  H   -1.88281883461571      2.35313152639029      0.48275198095567
  H   -2.30994073776769     -1.32307979276256     -0.18700153201468
  H   -1.27683883463361     -1.24572332927422      1.28903917015943
