15
Coordinates from ORCA-job orca
  C   2.00244466751013      0.11114891466261      0.88752476251254
  C   0.98682064294137     -0.66316096874899      0.08440073854686
  O   0.96406529661493     -0.27442034194182     -1.23475537432241
  O   0.03521478384487     -1.08387121122501     -1.87104362725968
  N   -1.30240500743281     -0.97204016552996     -0.29443244315794
  N   -0.45256131427779     -0.41154803810588      0.55480253067116
  O   -0.71606182267898      1.03949404196730      0.62204528871198
  C   -1.82557531325306      1.17966544591172     -0.11125729664316
  C   -2.21901093833972      0.00038855183002     -0.64122322134255
  H   1.88948040537529     -0.11295058025354      1.94994798113546
  H   1.88382656002406      1.18386111262096      0.72992171915887
  H   3.00362677114743     -0.18681223790676      0.56994976729460
  H   1.06393529503391     -1.75137752545055      0.17930704203277
  H   -2.25479807469895      2.16832314171037     -0.15121060570592
  H   -3.05899995181068     -0.22669913954045     -1.27397826163258
