24
Coordinates from ORCA-job orca
  C   3.38515043421114      0.40619940135641      0.85307496620655
  C   2.44931670066434     -0.49571305108323      0.04413387145134
  C   1.16204527316946      0.20970863880496     -0.39414357004615
  C   0.21859386663542     -0.70005386352449     -1.18783351162305
  C   -1.03892349152237     -0.00271130416690     -1.72714973036870
  C   -1.98689821878455      0.51613946376454     -0.65214563206458
  O   -2.40582972063418     -0.56869545195029      0.15269536971324
  C   -3.28698339018587     -0.18840085966821      1.18109579257963
  H   4.29491077600744     -0.12393483209886      1.15086554331671
  H   2.89700975931489      0.76591433835358      1.76524581429975
  H   3.68778534331313      1.28512433787052      0.27358832881644
  H   2.97643485756077     -0.87028184086324     -0.84284746844587
  H   2.19033670084029     -1.38173157866818      0.63784190851817
  H   1.41973712413484      1.09084720322175     -0.99890655683195
  H   0.64806220709385      0.59189243502102      0.49676510217454
  H   0.76672682913116     -1.13085017860123     -2.03515278012912
  H   -0.08944387023873     -1.54224810866927     -0.55838977093656
  H   -0.75505110379663      0.84641024815961     -2.36239190605502
  H   -1.59343197846427     -0.70079663089870     -2.36451830616974
  H   -2.86010289477040      1.00119959070186     -1.12028385092223
  H   -1.49691346040703      1.28197218408586     -0.02788203229139
  H   -2.82422450520429      0.53565602208403      1.87019258150980
  H   -4.20919945339658      0.26363971602981      0.78279291748568
  H   -3.54910778467183     -1.08928687926138      1.73994791981249
