14
Coordinates from ORCA-job orca
  F   0.22434540899246     -0.89636211561921      1.56463197465942
  C   -0.11348198706635     -0.95999546305881      0.21489407118312
  C   -1.58617590215662     -0.91766227270332      0.11958518888503
  C   -0.77457643067853      0.33438706278500     -0.26090746423730
  C   0.10395381167734      1.37258668269086      0.34389194821353
  O   1.48216389951973      1.01761173206685     -0.14367453315317
  C   1.75097378837387     -0.22054993777220     -0.59948152228538
  N   1.04220877794635     -1.29795332945297     -0.54012915150774
  H   -2.10379903963345     -1.01225597408344      1.06768363398605
  H   -2.10670451515411     -1.33606255536480     -0.73342622802377
  H   -0.74362274994137      0.40381823968132     -1.34513682500372
  H   0.14179013954961      1.36784645085074      1.43230331743453
  H   -0.04066370976313      2.38507237092865     -0.03267079039360
  H   2.72358750833421     -0.24048089094866     -1.08756361975699
