20
Coordinates from ORCA-job orca
  C   0.34069853198258      0.45693496478717      0.07016562863665
  O   1.45335917774536     -0.24866389055962     -0.23902411808971
  C   4.17639350012616      0.00887988999905      0.89992916209375
  O   -0.68122783871714     -0.41850297134169     -0.00069405548796
  C   -1.95772297374537      0.08400108989110      0.33056594818309
  C   -3.11071111027811     -0.40510515016152     -0.56911769733592
  N   -3.75278672320550     -0.95264185732898      0.55254663649833
  C   -2.72724865466993     -0.67287184336142      1.45764902814151
  O   -2.56304288923638     -0.92803561643314      2.61272693955361
  O   0.27870772834754      1.61817862280692      0.35147983599950
  C   2.66927847714743      0.44882839451822     -0.24325559779419
  H   5.15286822634518      0.49998725544945      0.85558925658955
  H   4.13433818661905     -0.77485721616012      1.66211429296656
  H   -1.92651969778912      1.16518482990038      0.48027852744066
  N   -3.46905983174853     -0.41355097613720     -1.77384694733766
  H   -4.65432310037023     -1.39898172250383      0.65526723474816
  F   2.61835389248897      1.37930404009047     -1.19759388895900
  O   3.08545761657703      0.93656617592361      0.99349526387043
  O   3.71984210187162     -0.44392452245698     -0.38585332218556
  H   -2.78665361949062      0.05927150307814     -2.36450812753178
