23
Coordinates from ORCA-job orca
  C   -3.04445821019062      1.84795624627781      0.32762465944263
  O   -2.05273937733825      1.15328807499009     -0.38858717180711
  C   -1.21904072918393      0.36593388114895      0.43863492381751
  C   -0.19646519798629     -0.35316668419370     -0.43669016968311
  C   -0.86987970235962     -1.31248317614233     -1.42445722127513
  C   0.81132341545284     -1.11405848588264      0.42822654672429
  O   1.53490206436848     -0.29937679579317      1.34221880653406
  O   2.45228527422927      0.50935935681994      0.55656630701079
  C   3.75190473034123      0.11593918118865      0.94997560537722
  H   -2.60800318444950      2.53739773897045      1.06717063792340
  H   -3.72074870670037      1.16066683261991      0.86065520348960
  H   -3.62633459911821      2.42635975813869     -0.39330271488472
  H   -1.82461457071946     -0.37225180626256      0.99711300981180
  H   -0.70690601027881      0.99614807415933      1.18095547844311
  H   0.35243071094998      0.40978954304581     -0.99988166600658
  H   -1.40767205517397     -2.10964705016083     -0.89677854324238
  H   -0.13538299421568     -1.78507566095013     -2.08458990021052
  H   -1.59267849829474     -0.77626570981695     -2.04226856041012
  H   1.51251802827089     -1.67258626297241     -0.20564738650405
  H   0.30017250298288     -1.83345890485234      1.08200889695671
  H   3.95107610510238     -0.93670048759375      0.71268695953222
  H   4.42362469003344      0.75551207249877      0.36963329015635
  H   3.91468731427806      0.28672026476238      2.02023800880406
