12
Coordinates from ORCA-job orca
  C   -2.00429234109666      0.12344005019123      0.21941106739522
  C   -0.84470827850421      0.02256888556915     -0.78660640366838
  C   0.46707190264791     -0.03692030645334     -0.15886579170930
  C   1.55448500546750     -0.08522270715859      0.36730181850699
  C   2.84336956894994     -0.14354761529021      1.00388257979984
  O   3.90163160577866     -0.04687680958871      0.42193978794034
  H   -2.96017883501162      0.16294940669106     -0.30928479114597
  H   -1.91125610309233      1.02426279112284      0.83044171435960
  H   -2.01534148148940     -0.74070399178410      0.88778901218435
  H   -0.86552830949399      0.87635965918545     -1.47517155305230
  H   -0.96733954566193     -0.86952425676769     -1.41379685350461
  H   2.80208581150612     -0.28678510571709      2.10302341289422
