16
Coordinates from ORCA-job orca
  C   -0.71077750330985      1.55419963228678      0.40385015021528
  C   -0.40719719585700      0.31844532933006     -0.45860345465722
  C   -1.40431401650836     -0.84890432050771     -0.27432940468040
  O   -0.77864429187115     -1.80032855749816      0.60864945947664
  C   0.57479746672884     -1.52698382209377      0.54826066595551
  C   0.88054511804291     -0.37252876950209     -0.04973468930762
  N   2.11880873013681      0.28508316662692     -0.15874722791832
  H   -0.82550012226182      1.26985816900126      1.45435128549897
  H   -1.63428578035789      2.04275067558143      0.07642337645237
  H   0.10437653049595      2.27987309671281      0.33903324542860
  H   -0.37594612338349      0.62518460012935     -1.51263838572193
  H   -2.35478375992008     -0.54651687639993      0.17243644903046
  H   -1.60361410041457     -1.34746516593972     -1.23200492246261
  H   1.21169371199287     -2.25645069793406      1.02956178140392
  H   2.30912319912331      0.60714814525527     -1.10219544561693
  H   2.89571813736352     -0.28336260504845      0.15568711690328
