21
Coordinates from ORCA-job orca
  O   -0.09407399883006      2.44111911582483     -0.40483041680535
  C   0.55611007647147      1.47878540575631     -0.72635358398604
  C   0.46862527408389      0.09923361414147     -0.08677010896667
  C   1.88235296114051     -0.45199172836548      0.06088200224335
  O   2.60081694261867      0.42113572035403      0.92089446479649
  C   -0.39812178652949     -0.78995207331957     -1.01802826792467
  C   -1.85157030431042     -0.40288340725516     -0.68104717668808
  C   -1.83374279578888      0.06042728878718      0.80315328705046
  C   -0.34349380256570      0.12977851766865      1.22257731063319
  H   1.26805780802937      1.53370140570642     -1.58450530384753
  H   1.83055659606710     -1.47257106132559      0.46937716276496
  H   2.36308605512866     -0.51803535733164     -0.92898196581866
  H   3.50625173177184      0.10646686968706      1.00135246399853
  H   -0.15518189539974     -0.66424876864817     -2.07876828012831
  H   -0.20586716678708     -1.84048179551988     -0.76947630214258
  H   -2.53966198759372     -1.23380071468958     -0.85554194792526
  H   -2.17630404444064      0.41789570671672     -1.32654535689795
  H   -2.30362978683645      1.04085774220619      0.89904732988531
  H   -2.38949318247932     -0.62715945114141      1.44636392997521
  H   -0.11522467239258      1.01648934191037      1.81494699934209
  H   -0.06949202135742     -0.74476837116276      1.82225476044152
