19
Coordinates from ORCA-job orca
  N   2.59943048136012     -0.37457737632557     -0.26640509468137
  C   1.79966988975052      0.61478113523227      0.21265729765254
  O   2.15815917487990      1.76909208776355      0.36648742147702
  C   0.40127577319117      0.13423147498654      0.60301517819067
  C   -0.74373365336230      1.17434496440893      0.37612656108756
  C   -1.62390155189613      0.28960768535915     -0.52324813407742
  C   -1.51495446804487     -1.07817791613288      0.19922333990459
  N   -0.05021007972880     -1.04692997542672     -0.20441916945488
  C   -0.55598025015437     -0.33284055421001     -1.45279522728040
  H   2.21213133036158     -1.29154999017313     -0.42532771733858
  H   3.54007650705646     -0.15186700358759     -0.54680357865503
  H   0.46100391618449     -0.17293479434599      1.65265683219949
  H   -0.37951305037594      2.07933069656009     -0.11360569255951
  H   -1.23962404069898      1.46304913661723      1.30580970456491
  H   -2.56733358662022      0.69870702769447     -0.88859923228150
  H   -1.69530607990476     -1.13052588855044      1.27692745256427
  H   -2.02619786167072     -1.89742195001634     -0.31080201383114
  H   0.17173600314625      0.31901195897102     -1.94358596237662
  H   -0.94672945347339     -1.06533271882457     -2.16164796510459
