17
Coordinates from ORCA-job orca
  C   1.93515356884918     -0.64374696282777      0.00288383198124
  C   0.78442554722162      0.31206763139578     -0.34685610768348
  C   0.63962908233086      1.36672753616846      0.73602159911984
  O   0.36313892110255      2.52355967484318      0.53652953661786
  C   -0.52342524550886     -0.45299509132159     -0.55700753561497
  C   -1.85307548914138      0.24457536867170     -0.65117653813224
  C   -1.55867647298593     -0.64946318525287      0.52771042832802
  H   2.88471926288220     -0.10930264804901      0.10338200046952
  H   2.05803721652514     -1.39949419456637     -0.77754303890290
  H   1.73864823006150     -1.16733493499875      0.94425573118994
  H   1.01196250077234      0.85095657588341     -1.27391412102876
  H   0.80933986538315      0.99537113480042      1.77428321485340
  H   -0.39444924332073     -1.30108868943597     -1.22508418094312
  H   -1.87355097726474      1.31504888815172     -0.47695899340615
  H   -2.55908653400653     -0.09548526473548     -1.40029486075244
  H   -2.05458029590610     -1.61141837458365      0.59100405429638
  H   -1.40820993699425     -0.17797746414322      1.49276397960785
