14
Coordinates from ORCA-job orca
  C   -1.43082255079286     -0.60701196717852     -0.41248804156791
  C   -0.62487644434933      0.26594884301838      0.54671860529918
  C   0.35001000049280      1.20513253313404     -0.15319622020995
  O   1.37397673124761      0.43631921814989     -0.79875752372099
  C   1.78999018573545     -0.62002062380992     -0.06426953535617
  N   1.28255858601294     -1.12232614320621      0.99379402658798
  O   0.10843870831363     -0.52935502511479      1.48925582731643
  H   -2.06028266659594     -1.29575994262359      0.15500142987364
  H   -0.77767314985554     -1.19353022792633     -1.06282854421501
  H   -2.07400694287364      0.01437175767882     -1.04381749332789
  H   -1.30133818232341      0.85850601051712      1.17215835010330
  H   0.81460231317093      1.87902557461036      0.57475462096685
  H   -0.13396157353120      1.79668160783422     -0.93307399760559
  H   2.68338598534857     -1.08798061508348     -0.46325050414386
