13
Coordinates from ORCA-job orca
  N   -1.86348077959994     -1.19535576733310     -1.16000827993622
  C   -0.84737668060407     -0.72447899431277     -0.57174319075076
  C   -0.82768351585804      0.27806739308726      0.57256891357959
  N   0.27069738651426      1.22258554025774      0.39781550854095
  C   1.48929152596090      0.59276859977476      0.12433494620452
  C   1.51345978483374     -0.58615323299891     -0.49889082049758
  O   0.36473329913406     -1.22184304900667     -0.93970005970109
  H   -2.71272075109522     -0.77755253448351     -0.78534016532955
  H   -1.77872856408491      0.81298483170877      0.59226947987425
  H   -0.73666997146541     -0.29867065657175      1.51046849635536
  H   0.31869516445712      1.92112704506767      1.12512176218635
  H   2.40221231131760      1.10184399529741      0.40199879551450
  H   2.40757179048991     -1.12532317048688     -0.76889338604032
