24
Coordinates from ORCA-job orca
  C   -0.73830225504955     -2.01940820492545      0.17497148613605
  C   -0.49479367833125     -0.50641683002725      0.30966690906356
  C   0.50253331632796      0.00336071148503     -0.74499971242369
  C   1.93089245342713     -0.46834746054426     -0.52672660461562
  O   2.46973676768278      0.04591668416519      0.71084573846498
  C   3.53617267064770      0.78339249675926      0.33279061256039
  N   3.79821253008789      0.84030384194005     -0.91070512333753
  O   2.80021840949022      0.05038058539621     -1.54057859291885
  C   -1.83600138455597      0.22314280837070      0.28442727526632
  C   -1.99793073184329      1.70709377528028      0.08493462007366
  C   -2.48685500640123      0.74666253054651     -0.97247670664539
  H   -1.18137046321124     -2.25562242515278     -0.79831637022880
  H   0.18351805596993     -2.59952607076514      0.27608746735625
  H   -1.42790956470083     -2.37089353547276      0.94837115405504
  H   -0.05154644086470     -0.31860246688021      1.29688857380117
  H   0.20660837914759     -0.32803934745353     -1.74670497618505
  H   0.53560209542811      1.09696285538572     -0.76307728747517
  H   2.01804443450180     -1.56229871085945     -0.50015249488735
  H   4.10600736771310      1.28556461572879      1.10040295810554
  H   -2.53392916203107     -0.20168228415991      1.00274017928013
  H   -1.12387031209924      2.30553353892654     -0.14781154858127
  H   -2.72618496868381      2.22930532558402      0.69566484840038
  H   -3.55508303799516      0.60593919551315     -1.09524921244678
  H   -1.93376947465687      0.70728037115929     -1.90431119281795
