22
Coordinates from ORCA-job orca
  C   -3.02508995490172      1.76269585649802     -1.07499767418084
  C   -2.84474434677039      0.88902244377981     -0.26803899158622
  C   -2.63163006708276     -0.16781760233351      0.71399278229585
  C   -1.30003484506254     -0.08231928546013      1.49901630927497
  C   -0.06012666048064     -0.59445771583154      0.75339718291240
  C   0.38384127908574      0.24878267169457     -0.44890361884723
  C   1.68253697536658     -0.24177857020972     -1.07415357664232
  O   2.71733985314406     -0.06836233398345     -0.11209439810381
  N   3.95203386819505     -0.56445388021521     -0.65578101840700
  H   -3.18452723309790      2.53608670921924     -1.78684037604592
  H   -2.69598999664392     -1.14319939177623      0.21367716146677
  H   -3.46558271082819     -0.14404374488907      1.42623527540207
  H   -1.14365847047943      0.95390022183104      1.81972470929591
  H   -1.42137684078801     -0.67395258060296      2.41299070286303
  H   0.77232968244072     -0.64858737104694      1.46248544067653
  H   -0.24457337944687     -1.62608567694552      0.42148835865528
  H   0.51040095206633      1.29431841791318     -0.14296656057999
  H   -0.38451256291099      0.24726864972120     -1.22806090010889
  H   1.60954473217457     -1.30182738629390     -1.35924451238525
  H   1.91860052476678      0.32540658781240     -1.98516109907406
  H   4.58451358424086      0.23160534720115     -0.57619917774196
  H   4.27070561701266     -1.23220136608241      0.04611398086069
