17
Coordinates from ORCA-job orca
  C   -2.08422187151888      0.69476779504750      0.55550891966875
  C   -1.71125812961066     -0.15367239954376     -0.65896183522756
  O   -0.37712831540536      0.02926856331512     -1.10539142460345
  C   0.61327618382456     -0.58186030602141     -0.31818971234372
  C   1.97665049204712     -0.65529640217073     -0.96863106497442
  C   2.59192014005573     -0.00035091335054      0.02241893315943
  C   1.32545209021503      0.27406264462773      0.80860686416146
  H   -1.90168809507790      1.75434516876643      0.35529443582342
  H   -3.14638472889319      0.56718501890594      0.78927033002372
  H   -1.51018437139965      0.40719066407190      1.44055531376778
  H   -2.34180099425754      0.11809520438696     -1.51131484741461
  H   -1.89020796531881     -1.21969747870684     -0.44446359298303
  H   0.25111111554155     -1.54929874830019      0.06593954102470
  H   2.30487176735662     -1.11544806623375     -1.89333181414924
  H   3.63101185480945      0.23263045582352      0.22674922948181
  H   0.99376081290748      1.31597495247268      0.80451761878230
  H   1.27482101472444     -0.11789815309055      1.83142310580266
