15
Coordinates from ORCA-job orca
  N   3.32974339051102      0.79135528422905     -0.54381483467437
  C   2.35886421703413      0.16618789874460     -0.59574544337873
  C   1.12003495934775     -0.60518198634676     -0.63208232460648
  C   0.04227854161195      0.00283495651780      0.29733052420060
  O   0.53038147455258      0.12273646465342      1.61122496813761
  C   -1.25183322095327     -0.84535462312400      0.34626211586780
  O   -2.30079074598368      0.09057591194547      0.01130769251741
  C   -1.66513648839773      1.24122990900312     -0.29715146779587
  N   -0.39905755389555      1.30680596855925     -0.21674781595093
  H   0.74975462938550     -0.64716387772391     -1.66071489849719
  H   1.33544801220920     -1.62728407619435     -0.30225329821863
  H   1.17262024183795      0.84500888486931      1.62349052617525
  H   -1.42940658516888     -1.23723402076721      1.34822702366399
  H   -1.27417436927546     -1.65590162712464     -0.38665831163082
  H   -2.31872550281551      2.05138393275884     -0.60267445580965
