13
Coordinates from ORCA-job orca
  C   0.26786880667469      1.69710617969423      0.08161727655102
  C   0.06884934090532      0.22655790139010      0.25273203590121
  C   -1.21228552060811     -0.53955873229684      0.15933405112667
  C   -0.02843983994739     -0.90151873109176     -0.75541804761100
  C   1.00448325736474     -1.51225849042163      0.14693670931722
  N   1.05789947436669     -0.59857119512191      1.05477388593484
  H   0.12892267287354      2.21571281159012      1.03651488951918
  H   1.27989537588330      1.91371789705972     -0.27324472228082
  H   -0.44703017218537      2.10871333316585     -0.63648784787140
  H   -2.03714215603596     -0.03565399473447     -0.34036262718508
  H   -1.50997154151314     -1.21864758030465      0.95370797942147
  H   -0.09667679299312     -0.88530136052749     -1.83553785733297
  H   1.52362709521481     -2.47029703840128      0.15543327450966
