19
Coordinates from ORCA-job orca
  C   3.32086609508408     -0.08211218349519      0.63505114964376
  C   1.92059323119407     -0.45244825206554      0.13989247317274
  C   0.99461816982741      0.73343262955530      0.05107708952055
  C   -0.27444879100691      0.67371431246259     -0.34923193114015
  O   -0.85205904671897     -0.49597016209580     -0.74747645933886
  C   -2.25776595005128     -0.45545036688866     -0.97658789893173
  C   -3.06029895179102     -0.53036877736380      0.31679333288132
  H   3.28169012553138      0.36415770174716      1.63449477585181
  H   3.97025801349607     -0.96091454605265      0.68765262482042
  H   3.79614915877912      0.64448064200380     -0.03256493703551
  H   1.48292249526357     -1.21388339795820      0.79941475477556
  H   1.99201455575704     -0.93836868111616     -0.84243479814150
  H   1.38040724291743      1.71155537892182      0.32105024145686
  H   -0.91051977606386      1.55541785458387     -0.40515369601403
  H   -2.51474574212473      0.45040726107331     -1.54408961597876
  H   -2.47326636427547     -1.31676932025872     -1.61478049093359
  H   -2.85887851934636      0.33278048536759      0.95780289013563
  H   -2.80520593591471     -1.43606615587449      0.87374488328426
  H   -4.13233001055688     -0.54819642254623      0.09534461197120
