14
Coordinates from ORCA-job orca
  C   2.10592108561680      0.00784719853257     -0.42671201907319
  C   0.62696677797731      0.06645858414557     -0.19581614615419
  C   -0.07696103110456     -0.87022469904460      0.44696721748493
  C   -1.55963087815960     -0.72545928344345      0.62097116240684
  O   -2.01021339677136      0.62496488155038      0.35147189879369
  C   -1.20940228642075      1.41810749049503     -0.38141021132669
  N   0.00650076395216      1.23399776054527     -0.70816615745553
  H   2.32106564184243      0.05396806016964     -1.49977061798563
  H   2.54378511363741     -0.90486571007394     -0.01707990625935
  H   2.59576225558436      0.87464306398757      0.02994829574874
  H   0.39069387022910     -1.76184784010834      0.85054330709274
  H   -1.87641962114126     -0.94586769560319      1.64608426820582
  H   -2.12441547216517     -1.39791318483470     -0.04403833312971
  H   -1.73365582307688      2.32619337368219     -0.67299275834847
