17
Coordinates from ORCA-job orca
  C   -1.57500583810658      1.52908214994078     -0.12026122520838
  C   -0.47431090422329      0.55102970459491     -0.46559533112837
  C   -0.82810050248542     -0.72208733534305     -1.15858115788373
  C   -0.45863561848637     -0.89173575339199      0.28892794017939
  C   0.86848825268651     -1.34239857633465      0.65834197085260
  C   1.97299230356173     -0.77774299248576      0.11682016769722
  C   1.85751942889510      0.48270974913147     -0.58193837158759
  N   0.76416381815020      1.15097545433937     -0.73549974862657
  H   -2.50923648971650      1.01158229814457      0.11434857438590
  H   -1.75478529936356      2.19956603724563     -0.96655056544128
  H   -1.29264663462567      2.14231811997623      0.73967340830257
  H   -1.87349471456804     -0.86682049437034     -1.41000568766753
  H   -0.12864977587617     -1.10057737432567     -1.89729942333510
  H   -1.27109265118519     -1.10649452634776      0.97570899111750
  H   0.95623580908286     -2.11232782258999      1.41975003606171
  H   2.96677823522921     -1.13479885274095      0.36393853764525
  H   2.77977958103119      0.98771821455721     -0.87172911536360
