21
Coordinates from ORCA-job orca
  C   2.64387207402397      0.92613154886877      1.00582355245693
  C   1.28196444813529      0.23911709970971      0.86936926691601
  C   1.12802155581936     -0.50646777138158     -0.45940115904448
  C   -0.20157122096744     -1.25164655915471     -0.63738781646937
  N   -1.37989498568748     -0.39206651785133     -0.69299597473820
  C   -2.16889831705961     -0.06540392804719      0.47888347984357
  N   -1.67523163007016      0.07982765765105     -1.91634100971987
  N   -2.64322198621015      0.85424039730223     -2.09931550139680
  H   2.73243405201995      1.45175648165364      1.96119157245379
  H   2.79775569237903      1.65891101440038      0.20702235789164
  H   3.46080075808634      0.19905308040146      0.94896029163052
  H   0.48926667796111      0.99053959564256      0.96418619094559
  H   1.14305101666345     -0.46407678309064      1.70169280011042
  H   1.93757592999803     -1.24170959009330     -0.55887090388209
  H   1.24084748429159      0.19464305268409     -1.29498230518668
  H   -0.17597695211461     -1.81069206372297     -1.57609287457286
  H   -0.34734565010008     -1.97564523978990      0.17227685336915
  H   -1.75494703720205     -0.59906060322260      1.33292142585281
  H   -3.21664356242276     -0.37042017086487      0.35233725628647
  H   -2.15231118033979      1.00952993567363      0.70444452856981
  H   -3.13954516720400      1.07344036323156     -1.21722503131636
