16
Coordinates from ORCA-job orca
  C   -2.37654652592595      0.50326961494131     -0.50200742180072
  C   -1.02518271045610     -0.00257740430775     -0.10136459488946
  N   -0.20175356755180     -0.35739611806954     -1.01573348688880
  N   1.03770794315760     -0.79414119830469     -0.54309213141689
  C   1.52963525158046     -0.21711165931273      0.62481874341605
  N   2.91552825348106     -0.18786601336344      0.72881439819851
  N   0.77270731553247      0.21615890702802      1.55934431524452
  C   -0.64237292974433     -0.08647163929120      1.35967249840115
  H   -2.49730468974522      0.46348779745356     -1.58551317289443
  H   -3.16904306348531     -0.09173645419811     -0.03186188689093
  H   -2.51627455677217      1.53678258005822     -0.16423398028581
  H   1.68758698733073     -0.93389831229350     -1.30234749524402
  H   3.40347508988868      0.14039862078762     -0.09446652622798
  H   3.20639481821760      0.30912714822796      1.56008842092177
  H   -1.24661148314155      0.60296559744734      1.95768890705593
  H   -0.87794813236617     -1.10099246680310      1.72857541330110
