17
Coordinates from ORCA-job orca
  C   -0.95490205226605     -1.83925427362517      0.54290740766641
  C   -0.22495179276529     -0.80712859946393      0.13021508826194
  C   0.89414485341140     -0.95490244262274     -0.85975018978684
  O   2.10949418270325     -0.35468378407745     -0.37102616790192
  C   1.95205225361128      0.75046137165106      0.39784099898998
  N   0.89720945132913      1.26692028763433      0.86660792189448
  C   -0.39324502258801      0.61224391395813      0.62072832953208
  C   -1.22730711692068      1.47718190475773     -0.34009861493601
  H   -1.76132040414135     -1.71683235834059      1.25948220387488
  H   -0.78174499145024     -2.84612706361695      0.17537320524526
  H   1.13015113102998     -2.00041531021890     -1.06377597307343
  H   0.64501035790705     -0.46362077419472     -1.81091861642950
  H   2.92511546003845      1.19605732842393      0.59938638330685
  H   -0.91505097911034      0.59049577496501      1.58419328594147
  H   -1.27108062540771      2.50348686920460      0.03289662413604
  H   -0.77970711260943      1.50236538939349     -1.33827656985757
  H   -2.24386659277144      1.08375176617216     -0.42578531686412
