23
Coordinates from ORCA-job orca
  C   3.65881584407787      0.00754351680677      0.14113005163990
  C   2.38533596983979     -0.74160854235718     -0.25995874088182
  C   1.15874244278434      0.17128874799900     -0.34457963228169
  C   -0.12751883322496     -0.57749126719542     -0.74341747440311
  C   -1.29705749297711      0.34711440740410     -0.89590625029943
  C   -2.46049591291280      0.28673838567376     -0.23191935199080
  C   -2.86702245353923     -0.76209128492525      0.77177245996781
  N   -3.51702004803772      1.19657311227524     -0.55175458964222
  N   -3.28598712186981      2.40876907129035     -0.68510930894977
  H   4.51771763110204     -0.66748911258467      0.19908824333172
  H   3.54494888728377      0.48548282484857      1.11980704780869
  H   3.90090578193706      0.79219765914203     -0.58340124390849
  H   2.19017575914015     -1.54636926762140      0.46031666481342
  H   2.53689727446444     -1.23303455677747     -1.22949227954964
  H   1.00020609564728      0.66771876809472      0.62107375106291
  H   1.34898746950887      0.97280974891676     -1.07036845755297
  H   -0.34118936694106     -1.35802320866736     -0.00618055266228
  H   0.05183285544083     -1.09328317681580     -1.69763021629644
  H   -1.18874327975556      1.12389249241709     -1.65184000271711
  H   -3.81474800484363     -0.48257324983981      1.23610945566437
  H   -3.00120024541597     -1.74350989523920      0.30521797260575
  H   -2.11648331497104     -0.86734698197096      1.55968206851218
  H   -2.27709993673757      2.61269180912613     -0.48535361427097
