25
Coordinates from ORCA-job orca
  C   -2.76418376623264      0.22295375783217      2.35099609811263
  C   -1.65015622802857      0.44557756920930      1.32063373312332
  C   -1.69866013849402     -0.53212457498719      0.19500452153333
  C   -2.76715940666426     -1.14111059215890     -0.45222807019308
  C   -2.73488854151131     -2.10401546952187     -1.38653174726304
  N   -1.38746314134115     -1.93970760831401     -1.56979496889458
  C   -0.76428579979315     -1.09930402680175     -0.66366170667338
  C   0.70411357319904     -0.89178554489805     -0.77100981953943
  O   0.98133992447766      0.42355365811519     -1.24099559054690
  C   2.36029174193611      0.71993026743480     -1.35257393595298
  C   2.96211772228228      1.22180715474859     -0.03551185738492
  O   4.33843955755722      1.53626279161858     -0.17594360339191
  H   -3.75103199203016      0.29920784886998      1.88104448248596
  H   -2.71972581994011      0.97133878411159      3.14672076338086
  H   -2.68765410758053     -0.76737725662337      2.80843337364320
  H   -0.67038254233473      0.37329591320076      1.80436242413405
  H   -1.71259432310458      1.46755057789562      0.92684914309907
  H   -3.40013140923330     -2.68540897727868     -1.99375452639546
  H   1.09124487031827     -1.64606676118931     -1.47543333429853
  H   1.19012319085123     -1.06057984847480      0.20259607180889
  H   2.44752606244245      1.50782292033023     -2.11135849466927
  H   2.93350441645294     -0.14657903999108     -1.71344283282638
  H   2.37351277798639      2.07752053460557      0.32640432455158
  H   2.91050014784903      0.44392514055204      0.73182643370372
  H   4.41560323093589      2.30331278171459     -0.75263288154674
