17
Coordinates from ORCA-job orca
  C   -2.14257666858969     -0.77527631899836      0.22277635617865
  C   -0.89155300489258     -0.02100299691047      0.67563210698168
  C   -0.09346920240207      0.55915147162446     -0.49628482642669
  C   1.15188823943751      1.32587010558131     -0.06925416273703
  O   2.10286953514101      0.41815545666770      0.50506729441572
  C   2.16725197584073     -0.76736768026299     -0.14024696109362
  N   1.39762488269155     -1.24487482841460     -1.03999279852722
  O   0.30079042865407     -0.45580081145187     -1.43262350367288
  H   -1.87669458678410     -1.60539608131249     -0.43575756218218
  H   -2.68752612683844     -1.17847081531994      1.08093826826967
  H   -2.82512623286570     -0.11740267417803     -0.32640480450921
  H   -1.16720298269410      0.80965296391993      1.33781811655619
  H   -0.24545953441586     -0.68200140810066      1.26297601974091
  H   -0.73574292154317      1.22305850093692     -1.08684903601144
  H   0.93431719260084      2.07397389300578      0.69575190515338
  H   1.60806893776374      1.81767156143659     -0.93518017606993
  H   3.00253906889628     -1.37994133822328      0.18163576393400
