16
Coordinates from ORCA-job orca
  C   1.80743492499990      0.07212110101617     -0.41713599476805
  C   0.65833005560725      0.49129998996020      0.50652139015476
  C   -0.25363021690640     -0.67833710247014      0.91494721628201
  C   -1.23379724759833     -0.97877176229214     -0.21012447054633
  O   -1.96486641948706      0.20149720861790     -0.58073487259195
  C   -1.26305850289878      1.36298372235659     -0.54339498818749
  N   -0.09639705486927      1.58878396787024     -0.10819202977925
  H   2.38663334530896      0.94904241359261     -0.71645020007226
  H   2.47474170901734     -0.63070802015531      0.09201993861512
  H   1.43533583707157     -0.40536078054321     -1.32930851749807
  H   1.10785167382179      0.91184588721075      1.41434049996646
  H   -0.81732664084203     -0.40678323247732      1.81404720964080
  H   0.32715214058930     -1.57611916898535      1.15196742717313
  H   -1.98622725661130     -1.71631801521246      0.07657292072280
  H   -0.71426529958515     -1.35062938110747     -1.10185109449725
  H   -1.86791204761780      2.16545317261892     -0.96322443461446
