18
Coordinates from ORCA-job orca
  C   2.29577102194023      0.30139387883388      0.89779365641003
  C   2.05284555544632     -0.14727539945495     -0.55341346808714
  C   0.72292134705491      0.31153236787452     -1.07846702854062
  N   0.56795429028273      1.16678686031861     -1.98502892522881
  O   -0.29141849239008     -0.38154277961015     -0.36615810773191
  C   -1.61150508909733     -0.10030551058699     -0.46835179946909
  O   -2.10668293819277      0.71277437362538     -1.21134704472526
  C   -2.41296021558699     -0.90750925824343      0.54944155443738
  O   -2.46870071981227     -0.20632642462322      1.78057293829650
  H   3.26416510407798     -0.06164689214221      1.25135454004504
  H   1.52179988392033     -0.08659275260300      1.56440532709482
  H   2.29557286993049      1.39251398243463      0.97107298861362
  H   2.81713689292191      0.25620439160604     -1.21931889073815
  H   2.09203517020062     -1.24093633991085     -0.61153941324990
  H   -0.41493251739313      1.35038104759983     -2.17716423237776
  H   -1.92220962491782     -1.86129048700681      0.75047665713586
  H   -3.40785741029030     -1.08861392577913      0.12497276759185
  H   -2.99393512809483      0.59045386766786      1.64424848052355
