17
Coordinates from ORCA-job orca
  C   -2.02193289172978      1.96795066350913      0.28111237366404
  C   -1.27875849903642      1.05063655473469      0.05894769226365
  C   -0.34687221398602     -0.04936428247654     -0.22378875039014
  C   -0.63231494571817     -0.64837819832852     -1.62752762216226
  C   -0.48843403028278     -1.10089202645011      0.79084144156690
  C   -0.61790052088329     -1.98116522848148      1.59790780467536
  C   1.07775830010939      0.54149308176720     -0.23952179881036
  C   2.01246174958155      0.44444172478828      0.88028941020377
  O   2.15249904237063     -0.37924010914869     -0.28955104823079
  H   -2.68217945783581      2.77776304143607      0.47910806396866
  H   -1.63681325241555     -1.07327835631189     -1.65998355501117
  H   0.09829213130365     -1.43198945631647     -1.83830797037955
  H   -0.55519045887008      0.13295717537734     -2.38813993833084
  H   -0.73372584527210     -2.76007221786000      2.31265951196899
  H   1.16111037157439      1.38983322469448     -0.92070350620709
  H   2.77916361942628      1.20662205088582      1.00691446080626
  H   1.71283790166411     -0.08731764181932      1.77974443040458
