19
Coordinates from ORCA-job orca
  C   -1.77043725867373     -0.48171050712376     -0.83861451574058
  C   -0.55937597029763     -0.00813599027757     -0.02333439674024
  C   -0.88613900114187     -0.10447622691097      1.47671409675028
  C   0.68306313178051     -0.84673233682920     -0.38922093218580
  C   1.95527188469159     -0.14945820962297      0.06814326838253
  O   2.01516767626323      1.19836022414732     -0.42837886455257
  C   0.82625215395299      1.84235636031793     -0.53799730543448
  N   -0.35045991272899      1.41239163005574     -0.35906187205579
  H   -1.57438421507807     -0.38284860370629     -1.91042398644256
  H   -2.00309011671056     -1.53045827304647     -0.62455330121706
  H   -2.64573610145813      0.12800005882269     -0.59926216328111
  H   -1.15256419879857     -1.13142106344514      1.74873096738481
  H   -1.72966593344555      0.54812921793425      1.71689837979849
  H   -0.04081566998007      0.20912317532927      2.09615926946015
  H   0.71999668942241     -0.97552402975587     -1.47711426399321
  H   0.63361264898567     -1.84706045405308      0.05462549301585
  H   2.85320510613937     -0.64506830665955     -0.30817221924194
  H   2.02263121066284     -0.11325951014704      1.16226305568019
  H   1.00346787641456      2.87779284497070     -0.82740070958696
