12
Coordinates from ORCA-job orca
  C   0.78293935714733     -0.89184682866075     -0.08203072372701
  C   1.54721452564575      0.19260361771044     -0.18583144310858
  O   1.09978422937044      1.47991640632733     -0.28355188450470
  O   -0.30503211561268      1.53345324912298     -0.64154916700107
  C   -1.05230202392408      0.69901057714882      0.24305174551330
  C   -0.71248970632783     -0.77016677732602     -0.00691845457647
  H   1.25737931381614     -1.86342041431346     -0.02334641432305
  H   2.63245005021843      0.19332434434291     -0.17969087096727
  H   -0.85263456517617      0.98779594801783      1.28241449748057
  H   -2.09134319176370      0.94332984752858      0.00328720064307
  H   -1.19104852890221     -1.11639471702647     -0.93172272837466
  H   -1.11491834449141     -1.38760525287219      0.80588724294588
