12
Coordinates from ORCA-job orca
  C   -0.66321161667747      1.21283990075316      0.23111210894000
  C   -0.14679815973630     -0.17002029794621     -0.10399276239471
  C   1.35977468426605     -0.31522432211459     -0.13004670592595
  C   -1.00338050198036     -1.33392807721878      0.02377775470393
  N   -0.93821734224136     -0.96402180896498     -1.17526147734066
  H   -0.24740865277821      1.95979774475403     -0.45491019603900
  H   -1.75243409307222      1.25603385407769      0.16249276194027
  H   -0.37252019489634      1.50469709088050      1.24731360957711
  H   1.65549596604214     -1.32048569127101     -0.43818382262798
  H   1.80714894105754      0.40205971814932     -0.82779468938809
  H   1.78911008785210     -0.11986388434042      0.85977768000206
  H   -1.48755911783558     -2.11188222675870      0.60571673855300
