25
Coordinates from ORCA-job orca
  C   -3.58573777372905      0.67394905402907     -0.59233272658791
  C   -2.43134951064197     -0.24112198906537     -0.17742796479608
  C   -1.08322933060392      0.48840659065107     -0.14535291442131
  C   0.13850530077011     -0.40002813742673      0.15680480519444
  C   0.07205145303831     -1.00903968414363      1.56420103274703
  C   1.43231088413317      0.40740452570053     -0.05670826403915
  C   2.72358376893719     -0.43419722028256     -0.02488228616675
  C   3.94471707953969      0.43905470520801     -0.23116928226116
  O   4.31686619348893      1.26266323239448      0.56811353196437
  H   -3.42413933356971      1.08808727385102     -1.59363344327425
  H   -4.53880692505871      0.13605344083397     -0.60495664666776
  H   -3.69054882588782      1.51760951232720      0.09871623095403
  H   -2.36677367921283     -1.08905221800876     -0.87251557494441
  H   -2.65099580739919     -0.67161435237507      0.80606719936922
  H   -0.92876675973422      0.97439771322821     -1.11826538597444
  H   -1.12764624901846      1.30341158411483      0.59160992012194
  H   0.13561078435779     -1.22367071187914     -0.57349953878983
  H   0.06560754973750     -0.22131185296823      2.32710574400813
  H   -0.82944254381745     -1.61181739166557      1.70033820457972
  H   0.92576099559772     -1.66136553229998      1.76828627825874
  H   1.37172333452683      0.92067651121563     -1.02505609232130
  H   1.51474301556519      1.19361900389304      0.70371872979812
  H   2.69249491239641     -1.21564919081017     -0.79240168926134
  H   2.83278502997195     -0.91947181041951      0.95104467941054
  H   4.49067543661256      0.29300494389766     -1.19094854690061
