19
Coordinates from ORCA-job orca
  C   -2.61919235087005      0.52071488519591     -0.14325243468301
  C   -1.56103028156173     -0.09221563669800      0.77777093735032
  C   -0.17291062292358     -0.03804240933563      0.17830171432713
  N   0.30608204425365      1.30225362131525     -0.03485018263095
  C   1.55438076136056      1.48620894991274     -0.14919599760712
  O   2.55801030281109      0.57885153838963     -0.09312685467090
  C   2.27733137421511     -0.70442158930270      0.49802838543392
  C   0.82984665438185     -1.11322611207456      0.39940924706605
  N   0.09963922297248     -1.04866785692444     -0.87467255322404
  H   -2.39131041080527      1.56908722747128     -0.35116281906493
  H   -3.61239209929659      0.46810547849265      0.31215718518511
  H   -2.65358549431784     -0.01665898608223     -1.09575862553990
  H   -1.54276769004696      0.43441724552236      1.73937774024784
  H   -1.80329540155399     -1.13961972417431      0.98595806130422
  H   1.95863855322440      2.47643344795849     -0.35143779220738
  H   2.57177316655504     -0.66495832128241      1.55497315671756
  H   2.94206317339313     -1.41120878783943     -0.00919977284873
  H   0.57465833370586     -1.96987753021852      1.02201075426291
  H   0.68405976450284     -0.63717544032610     -1.60101614941807
