17
Coordinates from ORCA-job orca
  C   2.19544209873661      0.45363854171996     -0.24826953803412
  N   1.30146424162373      1.27421044096673     -0.61243692757870
  C   -0.04602491616987      0.77040059488236     -0.75486799578652
  C   -1.12270908109517      1.15686617419793      0.30051962420310
  C   -1.65549055788138     -0.30721462836922      0.22169993403943
  C   -0.32226626009608     -0.72899417044910     -0.45377944664436
  C   0.73172222008903     -1.21840965949264      0.53269239891152
  O   2.05908887592487     -0.84369984331143      0.12988315111063
  H   3.24280623363670      0.75049642045935     -0.21499749926404
  H   -0.39800042302815      1.03897865167608     -1.75602234191403
  H   -0.67196733667409      1.38687592865193      1.26811247566889
  H   -1.81255966585606      1.95988429395998      0.03576956559095
  H   -1.90818767932907     -0.79637590269523      1.16630592778728
  H   -2.50653781623462     -0.40535303517524     -0.45513878056413
  H   -0.38239538033956     -1.39671618419699     -1.31655124882268
  H   0.74454875765281     -2.30555613647161      0.63026157827407
  H   0.55106568904030     -0.78903148635285      1.52681912302272
