16
Coordinates from ORCA-job orca
  N   -1.81473154610742      0.44346229763392     -0.04663552363295
  C   -0.92591275421638     -0.42696558061985      0.75082905563269
  C   -0.51661963915361     -1.05621661870132     -0.62018937809985
  N   0.89845912138129     -1.24100356386586     -0.75498753853874
  C   1.31664601218275     -0.01476108304839     -0.13014058603527
  C   0.39451923091868      0.36484481174727      1.09347193698137
  O   0.24584504186730      1.70233321700582      0.54024709621009
  C   0.43707645660531      1.09594536960170     -0.74759147344369
  N   -0.82899246800112      0.33129904580877     -1.17671954120571
  H   -1.79977681689484      1.40835440982715      0.29148015787663
  H   -1.37347714882191     -0.99548153166089      1.57031406746154
  H   -1.13951553543789     -1.84090057065686     -1.04515463559320
  H   1.23650943271058     -2.08060958439942     -0.29491894725967
  H   2.38952635060858      0.14756471205963     -0.04600020776117
  H   0.72517602627717      0.36354838300417      2.13183117176888
  H   0.75526823608149      1.79858528626415     -1.51583665436096
