15
Coordinates from ORCA-job orca
  C   1.72868505205361      0.01006567161837      0.46482751087599
  C   0.53653209939742      0.13132473795937     -0.47450565458431
  C   -0.61084084536263      1.08064646043090     -0.00849479268515
  C   -1.60328132325388     -0.11694472695985      0.00633358862263
  C   -0.46554114254805     -1.06458976849407     -0.46979396255337
  H   2.29867164230306      0.94483908182629      0.50917550502090
  H   1.40366480718070     -0.22866826356353      1.48429830120466
  H   2.41264459322560     -0.78250912823843      0.14128991766975
  H   0.89434251251630      0.37177994479221     -1.48100067966620
  H   -0.86345351957190      1.87358596870466     -0.71690020576094
  H   -0.43725918444985      1.54659634112555      0.96597874952431
  H   -2.44188685928408     -0.02479750814212     -0.68778243528274
  H   -2.01324049504077     -0.35625422358735      0.99050092341202
  H   -0.63312849708869     -1.52297059444754     -1.44764361772446
  H   -0.20590784007684     -1.86210599302445      0.23264985192691
