18
Coordinates from ORCA-job orca
  C   1.96320127664473      0.25644852417211     -0.78332689046292
  C   1.00366116117879     -0.54848801336701      0.07532192546981
  N   1.21169697888075     -0.36819224783764      1.55559708218019
  C   -0.00352607456983      0.02642821317286      1.69326664764377
  C   -0.49434225537511     -0.06601153509512      0.26665994031790
  C   -0.89261664609022      1.25518870306599     -0.39139218375884
  C   -1.54655128973309     -1.14763306751350      0.01289491358133
  H   2.00266750139665      1.30303926428409     -0.47037432933358
  H   1.66978557193286      0.22138348116800     -1.83771212841893
  H   2.97406160295943     -0.15358925484155     -0.69993173447246
  H   1.06958389662620     -1.60966866665433     -0.19309042626860
  H   -0.48274618454537      0.32039619857460      2.63015191733611
  H   -1.86991031331809      1.58635202620607     -0.02334858493368
  H   -0.97273543195753      1.14010148451310     -1.47790609931453
  H   -0.17383163507828      2.05243260246391     -0.18779393646620
  H   -1.26623982531654     -2.09689530354433      0.47930892603027
  H   -2.52185052576625     -0.84992712601602      0.41347740015886
  H   -1.67030780786910     -1.32136628275124     -1.06180343928849
