16
Coordinates from ORCA-job orca
  C   1.87050113220782     -0.69511119018882      0.00384600336973
  C   0.44477790591665     -0.23712332664928      0.19366174635173
  C   0.16667912198929      1.08795484929389      0.90715324157227
  C   -0.11467864554005      0.94923883023670     -0.55345386927718
  N   -1.48357731103213      0.89023255354497     -1.03224882758053
  O   -2.31009876910311      0.06586164841134     -0.16058759745850
  C   -1.71213890539440     -1.09281744054422      0.25625132623942
  N   -0.47936880300199     -1.31467577058894      0.43421807091197
  H   2.22801652265025     -1.21518971244020      0.89818234480223
  H   1.94677520446367     -1.38870984498515     -0.83952369155022
  H   2.53363578349314      0.15363508024691     -0.18919142468177
  H   1.02417250738411      1.68222285566979      1.20272190153050
  H   -0.67485447276516      1.12197643571851      1.58975579012417
  H   0.50909016454020      1.47845814220533     -1.26992416720468
  H   -1.48089091552857      0.36231732366482     -1.90845400632703
  H   -2.46804252027972     -1.84827043359565      0.46759515917788
