17
Coordinates from ORCA-job orca
  N   -1.25039679963466     -0.73575492457019      1.27895179180307
  C   -1.15100631609115      0.32012816998944      0.32487055207623
  C   -2.31526713792727      1.05825258770571     -0.20828911226128
  O   -1.46587004963357      1.61317791559411      0.81681434148838
  C   0.09773122955924      0.24844371077162     -0.50807287659619
  N   0.57651766721930     -1.08998480241091     -0.85434628713766
  C   1.37877412615230     -0.26481758565983      0.06127035354704
  N   2.54928805139120      0.31127811489632     -0.52752883264604
  N   3.49530293806277      0.42099009382946      0.27623417526727
  H   -2.14810043729067     -0.72570236248716      1.74847342205223
  H   -1.11291681760340     -1.63176940892152      0.82181378867927
  H   -2.27242824780987      1.56475362984484     -1.17223531788533
  H   -3.31349718220948      0.77222609163413      0.12153234769320
  H   0.19654212580933      1.03896582656716     -1.24684316155059
  H   1.01439990475294     -1.08260971886260     -1.77390973582703
  H   1.44381625562391     -0.59956193976333      1.09228870529220
  H   4.27711268962909      0.84253460184275     -0.25102315399478
