20
Coordinates from ORCA-job orca
  C   -2.27323603071558     -2.31081858653578     -1.25304023006043
  C   -2.40713419952340     -0.78499740684909     -1.20094269566401
  C   -1.10482069187540     -0.04577690030571     -0.86582745026318
  C   -0.60039613649360     -0.31297886408596      0.56655017254820
  C   0.61251971983668      0.40881466029829      0.91028589423449
  C   1.62340566531539      1.00170270454419      1.22313136228236
  N   2.75139299338321      1.69728778639568      1.37304336538847
  N   3.22910266945047      1.79917093834435      2.54386122244841
  C   4.43490189241411      2.58604704810587      2.47508969929485
  O   5.07317051265629      2.83660621516327      3.45703208817172
  H   -2.00323110466487     -2.73586763964957     -0.28135743971267
  H   -3.21549631969347     -2.77559785862828     -1.55689354152883
  H   -1.50604037486866     -2.61439354092513     -1.97320434958918
  H   -2.76486434678595     -0.42389975390687     -2.17159875903134
  H   -3.18028531707305     -0.50639649598278     -0.47319703883703
  H   -0.32013403443185     -0.32902117999319     -1.57655425337423
  H   -1.25446264172164      1.03233451888623     -0.98395721475043
  H   -0.40174586678032     -1.38293908257078      0.71239804797131
  H   -1.38223600203143     -0.06029830082003      1.29603312882825
  H   4.68958961360310      2.92102073851530      1.44882699164327
