6
Coordinates from ORCA-job orca
  C   -0.35533150752162     -0.00678816910295      0.02137394800852
  O   0.98007761121747     -0.10917867233934      0.48239818818601
  H   -0.59009102758924     -0.73944792305183     -0.76444334586755
  H   -1.00414756047910     -0.21003189917740      0.87671184311956
  H   -0.59755170928457      0.99670203610165     -0.35778508449605
  H   1.56704519365706      0.06874562756986     -0.25825654895049
