18
Coordinates from ORCA-job orca
  C   2.38949291491981      0.74848337954338     -0.62956396996009
  C   1.74305918772739     -0.40097309441126     -0.45635977745831
  C   0.81440850089453     -0.72554789624325      0.67860716857248
  C   -0.59227820454121     -1.14914038931205      0.20704517297914
  C   -1.38227285397940     -0.05817427163428     -0.53050018601850
  C   -1.78139463248991      1.12897457247281      0.35102288906564
  H   3.05147176242848      0.91412451272166     -1.47294277723319
  H   2.28840544635471      1.57199693130946      0.07245248674500
  H   1.88039553641647     -1.19693897508696     -1.18978282344944
  H   0.75074008518091      0.12791706355350      1.36254639375654
  H   1.24039125055521     -1.55528568617922      1.25964431476551
  H   -1.16715306401139     -1.48994814305477      1.07765004743529
  H   -0.48993909966293     -2.02219042824838     -0.45028989060217
  H   -2.28745048413052     -0.51030507150436     -0.95353714889405
  H   -0.79315504259938      0.30122011352079     -1.38279449701348
  H   -2.39636612728123      1.84357885908725     -0.20466848155322
  H   -0.90756211537380      1.67286759654744      0.72271638505876
  H   -2.36079206040772      0.79934092691824      1.22092969380409
