14
Coordinates from ORCA-job orca
  C   2.13387689403531     -0.23597349933086     -1.08463378799945
  C   1.17094241406364     -0.11481186422698     -0.17473128345928
  C   -0.28219484212351      0.02242614424511     -0.47606842302178
  C   -1.06650167875178      1.15580213942080      0.23946903532503
  O   -2.00902902324107      0.22262151874709      0.80273605607696
  C   -1.27052107633341     -0.90123295202759      0.28570088308813
  H   1.91611440236358     -0.24266732695472     -2.14891785803282
  H   3.17718087432591     -0.33304032498744     -0.80459589372801
  H   1.43425767923763     -0.11250653212756      0.88349310929415
  H   -0.45062430955752      0.01555398383582     -1.55545355710814
  H   -1.55058383730531      1.89179227220149     -0.41253798602414
  H   -0.49828629439901      1.68693049815998      1.01466193555143
  H   -1.89220349847723     -1.55761919235989     -0.33369061269992
  H   -0.81242970383723     -1.49727386459525      1.08627938273784
