22
Coordinates from ORCA-job orca
  O   -3.08535875962286      1.20449052311696      0.80175020062315
  C   -3.07901780528455     -0.10540791719072      0.27232131822780
  C   -2.09488781871148     -0.29893479941196     -0.88067933289651
  O   -0.78489036227417      0.16292462771233     -0.63896445036682
  C   -0.07389602304357     -0.54154662618134      0.36377853491326
  C   1.34708181099868     -0.06212904873489      0.36685085651568
  C   2.52376597880705     -1.01239991657121      0.48940625856759
  C   2.34455442964861     -0.21891904296523     -0.77091951566079
  O   3.02932384194172      1.02375702344361     -0.84849013226331
  C   2.52039335881890      1.76244517193307      0.17456354792217
  N   1.58835743758849      1.27215018416787      0.88654386344473
  H   -2.91926152810364      1.82859007060924      0.08774269442921
  H   -4.07328469423923     -0.41025193678756     -0.09773571016473
  H   -2.84048236638907     -0.76674068026601      1.11224615850691
  H   -2.44085467474048      0.27275347095172     -1.75081871270987
  H   -2.09687388565909     -1.36597446795838     -1.16566775339466
  H   -0.10851817090320     -1.62544478403072      0.16609507548169
  H   -0.51132795700974     -0.36498402618233      1.35576426648417
  H   3.32489917142948     -0.75603356160372      1.17372529607841
  H   2.29957972369183     -2.06997067150536      0.40269722767557
  H   2.16288095441876     -0.67012386918415     -1.73687007621945
  H   2.96781733863757      2.74175227663877      0.29704138480580
