20
Coordinates from ORCA-job orca
  C   2.88601541024696      0.63499963484846      0.25682297339828
  C   2.04165204697981     -0.21914471101240     -0.68709630507988
  O   0.74698133232810      0.32198552115576     -0.89917841446750
  C   -0.23089534176490     -0.03253964914372      0.08315005151245
  C   -0.88607442942171     -1.36289260253830     -0.21438075797204
  C   -2.17418962741183     -1.23426318768831     -0.52334058124078
  C   -2.64976964567310      0.19398402933676     -0.46743189137646
  C   -1.40237191619518      0.97918542425081      0.01611013849943
  H   3.89435544951168      0.21819144994699      0.35215477989321
  H   2.96739817718350      1.65580041334890     -0.12693141650920
  H   2.44803999315270      0.68264361484437      1.25833068633816
  H   2.51339059861687     -0.26438255334532     -1.67438567178333
  H   1.97833723546663     -1.25272224189722     -0.31571041191731
  H   0.24575567544400     -0.02913915430763      1.07440343030683
  H   -0.33514190785648     -2.29670492500808     -0.20142192491463
  H   -2.83184790494996     -2.05225799081436     -0.79969380178417
  H   -3.00634616289157      0.53065402432542     -1.44926854812247
  H   -3.49888579628874      0.31418400719060      0.21603394608620
  H   -1.12725350538533      1.78745442316077     -0.66422523193271
  H   -1.57915068109147      1.42496647334649      0.99785495106591
