17
Coordinates from ORCA-job orca
  C   1.67066722133742      0.89871850780681     -0.49050035029844
  C   0.47736863160351      0.18202091267853      0.08900619080928
  C   0.47914135555504     -1.34040538665367      0.09697068625212
  O   -0.87884505127678     -1.74506849770710      0.24351683516509
  C   -1.70516302375554     -0.75366629400724     -0.36732800968866
  C   -0.95921278884313      0.55445068184658     -0.19849264778432
  C   -0.37367457653536      0.80296486402338      1.16967323040476
  H   1.86862635049564      0.57866010532671     -1.51996725337980
  H   1.51669562453496      1.98182809158520     -0.50039161081577
  H   2.57473148164050      0.70226155549318      0.09773783453308
  H   1.04130940914650     -1.78228503264390      0.92745020312034
  H   0.90800061151420     -1.71707137829476     -0.84742554443824
  H   -1.86228744038644     -0.97096153655698     -1.43647735611671
  H   -2.67664562760849     -0.79135899609925      0.13714753844981
  H   -1.21135464031868      1.39129199476829     -0.84113360398996
  H   -0.70849757912801      0.17817948649202      1.99335885371528
  H   -0.16086095797533      1.83044092194218      1.44685400406214
