22
Coordinates from ORCA-job orca
  C   -3.05005686654705      0.61051304489005      0.27832270126021
  C   -1.74911463152142      0.98287143758012     -0.45415894101809
  C   -0.59319612141876      0.06840278843429     -0.11910345011552
  C   -0.68195897645952     -1.35243322820521     -0.64061353519987
  C   0.44757132085872      0.51244081335893      0.59276056605932
  C   1.66329080362340     -0.27868237800833      0.99133763800044
  C   2.89124613489044      0.02343518035728      0.12924857079666
  O   2.64968427391154     -0.47768476539136     -1.17868826383968
  H   -2.91715109428886      0.68539219066867      1.36179371093613
  H   -3.86852552242414      1.27692790689182     -0.01108973534829
  H   -3.36235801246753     -0.41351699525725      0.05187912462724
  H   -1.92966064250849      0.95255079247957     -1.53757514208865
  H   -1.48210506717004      2.01672149496251     -0.21116922567439
  H   -0.66594811877547     -2.09122336347802      0.16798373327086
  H   0.16266124486240     -1.57366281057584     -1.29932671864015
  H   -1.60340599289955     -1.51121445146415     -1.20647134564547
  H   0.44555102651968      1.55635094735284      0.90641909755823
  H   1.47337683416935     -1.35511291155004      0.94014753463067
  H   1.92674183656825     -0.05128967217419      2.03251008772392
  H   3.77838919966866     -0.45349835864226      0.57505587468807
  H   3.07510459500204      1.10917744205481      0.10843964403561
  H   3.38986177640635     -0.23646510428424     -1.74262792601722
