17
Coordinates from ORCA-job orca
  C   3.13275783932153      0.09456941484856      0.45652418726820
  O   2.18823971905210      1.03398248054429      0.98192102282670
  C   0.90097547976041      0.78055590057971      0.72923478815149
  N   0.49861707608289     -0.22175825022568      0.06540651129020
  C   -0.88818217367505     -0.37889799322998     -0.12847223715264
  C   -1.90645042778566     -1.12608746852430      0.67147329057101
  C   -2.16551987243667      0.28776213742792      0.21087252214905
  C   -1.77912330362758      0.08723602664658     -1.23458081477073
  H   3.05712291013880      0.04045107635025     -0.63247684046752
  H   4.11355781739078      0.46291968924601      0.75625676579969
  H   2.95304527596447     -0.90258265661637      0.86746762611818
  H   0.26264170136242      1.54998226220376      1.17287807393902
  H   -1.67398348488200     -1.26493176931522      1.72535316693531
  H   -2.46847977473591     -1.95153642909055      0.22611646400410
  H   -2.45484306617933      1.17443964704259      0.75422817793315
  H   -1.44009530074954      0.96681777765800     -1.77976907182549
  H   -2.33028041500166     -0.63292284554558     -1.84594663276972
