25
Coordinates from ORCA-job orca
  C   -2.75529384419261     -0.98857221952061     -1.10817523105379
  C   -1.68415944246808      0.03208369874111     -0.71154089784408
  C   -0.61420754923577     -0.61797160944920      0.18329174988130
  C   0.64025045188726      0.23360984903517      0.35239035342010
  O   1.64201464113167     -0.45458301789346      1.10604568270223
  C   2.44285156709398     -1.34417843012753      0.36470548791168
  C   3.52869628896998     -0.63008975275906     -0.43283346141337
  O   4.12277777223551     -1.12783612010725     -1.35292327497546
  C   0.38410769045945      1.51264756813476      1.14811656710690
  O   -0.44534498864017      2.47181881583751      0.49675020247503
  C   -1.77521745893775      2.20884048773636      0.31928841213795
  N   -2.36267264376115      1.19631168902531     -0.14527817785306
  H   -2.31729532353947     -1.82914154445182     -1.65503830438647
  H   -3.26061133983149     -1.37792173296282     -0.21882110267334
  H   -3.50929042575505     -0.51489477857795     -1.74050457170505
  H   -1.18104816141077      0.37157164817462     -1.63106051296414
  H   -1.03697746206345     -0.83501981628179      1.17172714043005
  H   -0.33811389291352     -1.57930724837354     -0.26276048937801
  H   1.03529627082825      0.51212369249644     -0.63782187605185
  H   1.86737007398073     -1.99202347257666     -0.30955637821689
  H   2.94548512672087     -1.99818505166871      1.08877272970648
  H   3.74841505093056      0.40114135709952     -0.06867046427803
  H   1.33469112499870      2.01950251913290      1.32301326912800
  H   -0.04624368899115      1.24666645077146      2.12229871644797
  H   -2.36547883749650      3.08340501856522      0.59858243144584
