12
Coordinates from ORCA-job orca
  C   -1.53303806481911     -0.03260974707986      0.29546723375874
  C   -0.24937331747418     -0.26339704430506     -0.47904090345724
  C   0.94515313157688      0.71797434156778     -0.22076938254846
  C   1.56609031601275     -0.55639265131213      0.27817590014643
  N   0.60004755122619     -1.37931344688029      0.07093625549142
  H   -1.32530759561495      0.10196165041929      1.36177170069496
  H   -2.05119780463122      0.85953421887456     -0.07117115874122
  H   -2.20587903996651     -0.88832727583297      0.18768978986370
  H   -0.46577135017172     -0.42693984908093     -1.54034028320693
  H   1.40845826112828      1.16793191722972     -1.10457904067637
  H   0.76825130761138      1.50081451741889      0.52338029817781
  H   2.54256560512222     -0.80123663101899      0.69848059049716
