21
Coordinates from ORCA-job orca
  O   -3.38578614944926     -1.24943161558842      1.37784982039447
  C   -3.43433331889572     -0.57982180455342      0.37477707488787
  C   -2.25186376707557      0.13441808979327     -0.22452988906713
  N   -1.09538200355509      0.08879039959975      0.64617180180250
  C   0.16568838460727      0.14418381298069     -0.02180449441278
  C   0.76271469509593      1.51754249925919     -0.27703073507203
  C   1.35944931328818      0.60643958942841      0.76722284225818
  C   2.64821038132944     -0.13731097225141      0.50646045398699
  O   2.72382310414972     -0.70552293395530     -0.81497336925859
  C   1.56499878316391     -1.16967122827739     -1.34686695557435
  N   0.37820216855956     -0.85233001240285     -1.04199602218219
  H   -4.38009190385141     -0.46430755408294     -0.19854896432154
  H   -2.55380822671557      1.16927862576451     -0.44743772911673
  H   -2.07168240616040     -0.34447360173628     -1.20505856099862
  H   -1.16672762681359     -0.72995369741331      1.24382312816140
  H   0.19536537173271      2.36951809060779      0.07800123735320
  H   1.30209517458268      1.66248555956293     -1.20693795502243
  H   1.19335519602665      0.86936373361081      1.80724468238234
  H   2.75020535264424     -0.95646966984197      1.23029784933515
  H   3.52659789219999      0.50785279006360      0.59340509371303
  H   1.76896958513634     -1.88058110056767     -2.14559130924873
