20
Coordinates from ORCA-job orca
  C   -3.89683384902601      0.21050614986988      0.21775404519941
  C   -2.38913117535870      0.36495260246660      0.19256777916325
  O   -1.82102061386389     -0.95650493970903      0.16311331306526
  C   -0.48511516852377     -1.03767731043910      0.20312559233865
  N   0.28822342467857     -0.03888057597312      0.25052489414183
  C   1.71554353827251     -0.29678343461716      0.29878234004102
  C   2.41963371121586      0.40204870958486     -0.86469159207409
  C   3.92352286446753      0.32075390476376     -0.80028274798280
  O   4.54394286249928     -0.21065725354789      0.08799502424924
  H   -4.25080738412071     -0.32296914376825     -0.66832601925039
  H   -4.21656933323445     -0.34400654293644      1.10395492478807
  H   -4.37057154450179      1.19620913590759      0.23870193846419
  H   -2.01062844869348      0.89436460518302      1.07283693250899
  H   -2.04553899950872      0.91730709113231     -0.68897983274989
  H   -0.16908100402982     -2.08739152001950      0.19581274751669
  H   1.96025992521348     -1.37038451805699      0.28624791034911
  H   2.11802170620382      0.10377671744477      1.23570546012185
  H   2.09838405281273     -0.00985915748900     -1.83201849120109
  H   2.13762133278345      1.46338365750113     -0.90326351936143
  H   4.45014310271408      0.80181282270256     -1.65636469932786
