13
Coordinates from ORCA-job orca
  C   2.31060566445335     -1.67318357188033     -0.73668454410957
  C   1.34124931882233     -0.95820232730967     -0.72931960826710
  C   0.20845212449689     -0.12210909715995     -0.73878966170710
  C   -0.47005988569443      0.42264070985944     -1.85917879811902
  N   -1.50615539440038      1.17070403358003     -1.50222254906507
  N   -1.51326873078389      1.12051019108490     -0.16076198378414
  C   -0.50981631476053      0.36103893822063      0.36307711678400
  C   -0.33539042717276      0.17626629621514      1.74516647565104
  C   -0.18941321310398      0.02049604212407      2.93064901067494
  H   3.16624605730798     -2.30378510054884     -0.74265194416031
  H   -0.22666944109433      0.28627620500111     -2.90208898064154
  H   -2.21882229857056      1.61889037157587      0.35638201240054
  H   -0.05695645949967     -0.11954369076239      3.97642245434333
