15
Coordinates from ORCA-job orca
  C   -1.88451921837643     -0.83580505591428      0.60528160461851
  O   -1.16692636068070     -0.37075502787421     -0.54805805907881
  C   0.03419390993651      0.25364637827207     -0.31661609013482
  N   0.38590494075153      1.26821681332433     -1.27117395800234
  N   0.02798213205836      1.63672983005363      0.15401180828607
  C   1.17414046738470     -0.62272171754980      0.21238763259561
  N   2.39982697950798     -0.18831108902535     -0.15477539532864
  O   0.96181995000173     -1.60548888690589      0.90028317926386
  H   -2.87507605875628     -1.11467061714099      0.24371462691046
  H   -1.38223140542206     -1.69131955733541      1.05628929015749
  H   -1.98540892824281     -0.03701086554394      1.35047437666469
  H   -0.43699497495121      1.40853850154197     -1.86050161473794
  H   -0.95521214967708      1.92370565091599      0.15294504079487
  H   2.48940489689740      0.63375028383129     -0.72978195644643
  H   3.21309681956836     -0.65850464064941      0.20552051443744
