21
Coordinates from ORCA-job orca
  C   2.04063741705102     -1.27625850696380      0.62408919521699
  C   1.30240035712596     -0.34795098772394     -0.32093124575553
  O   2.03457884733632      0.88265586214863     -0.57006117425948
  C   0.95873594695703      1.70072260619267     -0.05207267398620
  C   0.12253189075446      0.46203580610617      0.22252104175405
  C   -0.79194987677319      0.19813526703303      1.39036754859442
  C   -1.35621514710346      0.30216195906620      0.00242341143526
  C   -1.90575178999120     -0.91951908310795     -0.69646322840089
  O   -2.08741535249388      1.48280251970885     -0.22403961756775
  H   1.45683136668783     -2.18532552530915      0.80664233216450
  H   2.99928026264002     -1.57298650059768      0.18857326698735
  H   2.23126186259939     -0.78459116017063      1.58188966563714
  H   1.09213618826126     -0.86454908657332     -1.26909459582200
  H   1.26999075769940      2.28017681853781      0.82593504367039
  H   0.55959415502635      2.38956304653505     -0.80813493816203
  H   -0.76470886291216     -0.77829538410205      1.86377532255181
  H   -0.98589530637070      1.02829029998532      2.06165541743296
  H   -2.94974801516692     -1.07956584551338     -0.41114471789948
  H   -1.33575684226446     -1.81634320230370     -0.43888215013477
  H   -1.86633299854487     -0.80153749095410     -1.78621989644868
  H   -2.02420486051820      1.70037858800600     -1.16151800700807
