24
Coordinates from ORCA-job orca
  C   -0.46228289827940     -0.68842070667659     -2.97370988389739
  C   0.24957968477503      0.05341533638002     -1.86168193850831
  C   -0.36631920345242      1.24070889045554     -1.16054128604478
  C   -0.14155188937975     -0.04852230533236     -0.40651084281501
  C   -1.35574746147599     -0.83498703040143      0.03329819239791
  O   -1.92973866957181     -0.28373652951481      1.21709267760147
  C   -1.01754378451633     -0.03593703716288      2.20735087115533
  C   0.31315972098111     -0.00801216922202      2.05760508529894
  N   1.22634171175391      0.04525274574846      3.13204039810315
  C   0.94117318525059     -0.15255457210183      0.67839788256513
  C   2.01727820739195      0.83007998723313      0.50013528703400
  N   2.87729543602087      1.59521716886686      0.38426167669636
  H   -1.54843802560684     -0.66938613815538     -2.85300992792840
  H   -0.23661808531758     -0.22678069371824     -3.94017803571440
  H   -0.14572681162976     -1.73560808053015     -3.02642270023865
  H   1.32354224717813      0.13900979904864     -2.01608707261912
  H   -1.39683047314572      1.49031450776116     -1.39298621424092
  H   0.26390674833226      2.09435373328502     -0.93876094085503
  H   -1.08128914551534     -1.88282576854315      0.23182614672154
  H   -2.14645063953240     -0.81925050635280     -0.71665813260226
  H   -1.49398529359932      0.10655008649976      3.17195328472481
  H   0.76725091058053      0.14519979751654      4.02928023085145
  H   1.91587703705313      0.78395458219420      3.02811293524364
  H   1.42711749170517     -1.13803309727768      0.61519430707054
