21
Coordinates from ORCA-job orca
  C   -2.72408154756291      0.02109769704990     -0.50776077946502
  C   -1.68797287731284     -1.09645772717815     -0.34806499851902
  C   -0.52835836102935     -0.75977002176744      0.60486487852422
  C   0.35678454914573      0.38180915861327      0.12559041023241
  C   1.78263710237393      0.60220366079033      0.75295401517665
  C   2.10651169118580      1.42724850857853     -0.53745061978908
  C   1.33334350984679      0.18489374789022     -1.09558080719093
  C   2.19651096539739     -0.60822578060715     -0.10063825411746
  O   2.84038356761135     -1.61096410441560     -0.03097429531345
  H   -3.55197749713926     -0.30035966576941     -1.14660181981775
  H   -2.29316906559125      0.91860787141417     -0.96169377936742
  H   -3.14635031822687      0.30956204415233      0.46116181987496
  H   -2.18813261352680     -1.99773736476876      0.02456489962313
  H   -1.28045735110815     -1.36451019473879     -1.33083334358287
  H   0.08145142166252     -1.65889114672178      0.75330868648342
  H   -0.93429421603154     -0.49763137096744      1.59106470165161
  H   -0.19082064508016      1.32626537867572      0.05001764596964
  H   2.02833603828607      0.84749902562371      1.78460835289550
  H   1.56253079318022      2.37118747884079     -0.61867916987284
  H   3.15525208526765      1.53788415823507     -0.81795309022765
  H   1.08187476865167     -0.03370935292948     -2.13156545316806
