18
Coordinates from ORCA-job orca
  C   2.40707457324523      0.12914868798884      0.60685687422266
  C   1.27288839013878     -0.53012027908028     -0.18445484082994
  C   -0.00673721112905      0.29367333941508     -0.16587976619549
  C   -0.92001736045669      0.33159455268116      1.11779291950229
  C   -2.05934800073534      0.81783675701450      0.15631821042797
  C   -1.36440325492193     -0.32282815166182     -0.66499102691701
  C   -1.36271480200487     -1.07331776132312      0.67702808405856
  O   -1.59632907940952     -2.15295098172581      1.13130170105018
  H   2.13863497454532      0.24890643549057      1.66148066030689
  H   2.64200021519797      1.12262811103259      0.20970029099275
  H   3.32047080507262     -0.47093739698296      0.56251193019885
  H   1.07753926981998     -1.53390595569676      0.21187208585225
  H   1.58625652610723     -0.66769113434074     -1.22711338137886
  H   0.15753095206316      1.29830377139498     -0.57323353247738
  H   -0.67762877319222      0.71052599268550      2.10858492323184
  H   -1.91081538799949      1.82159778148736     -0.24882857772999
  H   -3.09034482745009      0.65315640503114      0.47457772337375
  H   -1.61405800889109     -0.67562017341023     -1.66385027768935
