21
Coordinates from ORCA-job orca
  N   -3.73652324934776     -0.17574923978255      0.39406550129526
  C   -2.85546811505742      0.51706096959458      0.11154523482439
  C   -1.79795157087870      1.46051889160057     -0.25047794980778
  C   -0.71903395541795      0.90863667245818     -1.20764299276387
  C   0.20019146080576     -0.11795713392433     -0.58156165002071
  C   1.64637559044460     -0.19414693256655     -1.03968438344731
  C   1.31648799971285      0.30696791697203      0.34260004494451
  C   1.54246280483959     -0.55253229760820      1.56521719559799
  O   1.07649581852281     -1.90372440013752      1.40818998276294
  C   0.01225575245512     -2.11731159638404      0.59531752455588
  N   -0.45195968864215     -1.36933331371814     -0.31415311862932
  H   -1.32896556058825      1.82096677892983      0.67235815828179
  H   -2.28367167834272      2.32712759904257     -0.71243031015838
  H   -1.19901922285834      0.46454669143050     -2.08509088325052
  H   -0.12559164192431      1.76109458223285     -1.55360123908336
  H   1.99424147399599      0.52611851209846     -1.77233172423239
  H   2.07096115407783     -1.18704888077963     -1.14241444910465
  H   1.45004697730324      1.37048238679365      0.52635930992771
  H   2.60159908129164     -0.64012722398177      1.82376926163845
  H   1.01692766201522     -0.11516169325736      2.42373494221503
  H   -0.42986209240702     -3.09043128901313      0.79623154445435
