12
Coordinates from ORCA-job orca
  N   -0.43939853780692      1.49465639037206     -1.45392889103573
  C   0.53548031219864      0.67503056342413     -1.38141822254260
  N   1.45516858297588      0.03553032383199     -2.26834316440849
  N   1.70341009006353     -0.85638798434850     -1.38072209159635
  N   0.97926017829471     -0.22162578971815     -0.31444652591601
  N   0.11617154189431     -1.03530975956828      0.46342489432553
  C   -0.53619301465293     -0.23642103641094      1.52667472421924
  C   -1.17803585592435      0.95600125659077      0.88391153887540
  C   -1.01264717246129      1.43000939071340     -0.22692148494426
  H   -0.60902584866871     -1.43158418941351     -0.13658310613158
  H   -1.23804593218941     -0.89389358331927      2.04506861796180
  H   0.22385565627656      0.08399441784630      2.24328171119304
