13
Coordinates from ORCA-job orca
  C   -1.45839276432027     -0.72563786161811     -0.18362199401538
  C   -0.13795561386437     -0.07225463826359     -0.58552032122039
  C   1.07903971336795     -0.52644335779734      0.26861190927440
  O   1.58019816991908      0.69858170410209      0.86046446234225
  C   0.76251012230524      1.67662786709655      0.39959288001583
  N   -0.18819483008968      1.39373377443699     -0.38803135656641
  H   -2.28107463410055     -0.32009990516664     -0.77741283442342
  H   -1.67556009690382     -0.53768544340698      0.87267005760264
  H   -1.41911966413319     -1.80860712593355     -0.34098210213822
  H   0.04294710316809     -0.26491397295695     -1.64923445659664
  H   1.88525105518615     -0.97496786080389     -0.31701803745545
  H   0.80413239628503     -1.20850309668389      1.07898906139476
  H   1.00622004318034      2.67016991699534      0.76149273178603
