17
Coordinates from ORCA-job orca
  C   -1.87262425095931      0.83152067053018      0.10795711236737
  C   -0.45282061441079      0.31932289961662      0.07363256332336
  C   -0.07344843656238     -1.04896039267967      0.73007893744296
  C   1.07770257450525     -1.07609452779571     -0.30167577976695
  C   0.16245081295092     -0.25899756670571     -1.24292727546180
  O   2.15442444140895     -0.23442557988923      0.16411357507693
  C   1.69674288515158      0.96965170941688      0.59184823948794
  N   0.48296058558567      1.33733132590870      0.59366562581841
  H   -2.16290416864505      1.08442002221702      1.13236609249114
  H   -1.96517432811604      1.73977857791768     -0.49550334540513
  H   -2.57057387229314      0.08216629816858     -0.27859566745545
  H   0.18887761721206     -1.04435698997244      1.79036570020383
  H   -0.80770085885400     -1.82932163891755      0.51948416635675
  H   1.53536628014038     -2.01142534613076     -0.62077672825068
  H   -0.53359228191628     -0.91023289304087     -1.77570282080994
  H   0.63390129081642      0.44517272995114     -1.93201427420048
  H   2.50641232398578      1.60444970140514      0.94368387878173
