20
Coordinates from ORCA-job orca
  C   2.36977550701437      0.42256666345405      0.53724103091501
  C   0.85521164028226      0.35973110562639      0.41395328191087
  O   0.42680043674023      1.72620335115280      0.16715405520038
  C   -0.89311149270030      2.04577220211382      0.07894104362695
  N   -1.96563744101098      1.37599527326161      0.08643441414315
  C   -2.01049593458470     -0.08576081341093      0.17177738286743
  C   -1.09584265176658     -0.79468857568460     -0.81233371607033
  C   -0.19297468605509     -1.91686109450292     -0.36757703848235
  C   0.38589430510895     -0.55678152423549     -0.68642779324484
  H   2.66411615864452      1.10585912707015      1.33762987599333
  H   2.81157991788144      0.77712095353501     -0.39872479694987
  H   2.76962144084698     -0.57123034548998      0.75708713867524
  H   0.42960079121399      0.04551443487877      1.37379222909719
  H   -0.95495982535005      3.13097175347357     -0.01825156289500
  H   -3.04633598542164     -0.38673295170321     -0.01559724968107
  H   -1.79557942757685     -0.40845492493571      1.19853608555271
  H   -1.48182556139364     -0.85145057469837     -1.82620668629786
  H   -0.23629389358931     -2.22223451665269      0.67380486067565
  H   0.00894749273038     -2.72644425091922     -1.06019626930127
  H   0.95151120898602     -0.46909429233306     -1.61103628573531
