25
Coordinates from ORCA-job orca
  C   -1.89930214993265     -0.81330881482033      1.13613419858083
  C   -1.41267512710277      0.16214782972209      0.06217060857055
  C   -1.27745766243117      1.59473806101810      0.60201351207124
  N   -0.65666642030637      2.53248097768519     -0.32231418806386
  C   -0.02801746143309      2.05047481956118     -1.31144809219918
  O   0.21487446645337      0.76033882504763     -1.63542331153617
  C   -0.09299519381429     -0.25230487142221     -0.62970507585527
  C   -0.22136213213229     -1.55165466711972     -1.41734650339733
  N   0.96467759745453     -0.29354145512022      0.36094461450491
  C   2.27933283415847     -0.66804894718118      0.10449019117023
  N   3.15447208442034     -0.31820682699559      1.12513575359046
  O   2.64310925844385     -1.30195105192476     -0.86618795521951
  H   -2.81752460557328     -0.43484698205201      1.59614747678762
  H   -1.15680347497804     -0.94600751222729      1.92866905266974
  H   -2.12200488732702     -1.79806838482930      0.71899406405842
  H   -2.15394259263465      0.18959247645271     -0.74490976261067
  H   -0.71937495036267      1.60924348211372      1.55255894371333
  H   -2.27085011612005      1.97808279673745      0.86149139378065
  H   0.40790024842877      2.71147508481131     -2.05983199994841
  H   0.66957449819510     -1.70599313502089     -2.02159788917534
  H   -1.10034645968434     -1.49475834598068     -2.06459686993920
  H   -0.32917384484109     -2.39862925486374     -0.73776736175737
  H   0.83279869025412      0.32261752224945      1.14830454244220
  H   2.96920587763321      0.50676203035738      1.67506498710045
  H   4.12255252323201     -0.44063565619828      0.87052467066169
