24
Coordinates from ORCA-job orca
  C   2.56199781754075     -0.37047994720580      0.02674675135516
  N   1.88158874325374     -1.38679182490232     -0.27829893894644
  C   0.45785130216905     -1.37220615124505     -0.57730653552638
  C   -0.43500082831797     -1.53260355004852      0.73625086863404
  C   -1.71972461102202     -0.63526796671771      0.82662250485296
  C   -1.57351581387588      0.89454614424708      0.44246005774413
  C   -0.24775515169001      1.01453675904657     -0.29173295493572
  C   0.89077976252059      1.24230857140992      0.69563109079144
  O   2.21417426595363      0.93139620821929      0.23830437333833
  C   0.17037873987139      1.24789010514673     -1.73337167187396
  C   -0.13877726345662     -0.14493744227574     -1.23511503474027
  H   3.64225198123219     -0.46564351765004      0.13991841702388
  H   0.28631012473117     -2.24796109894064     -1.21198169212206
  H   0.20930263383621     -1.34664888600836      1.59842502218826
  H   -0.75509190829579     -2.57440031510267      0.82999904673292
  H   -2.11215767790337     -0.72741736446982      1.84430504855196
  H   -2.48491619566104     -1.07456557071575      0.17882398878306
  H   -1.61453983105097      1.53077681925732      1.33436839016680
  H   -2.41507044113715      1.19094185757483     -0.19052504469479
  H   0.93736168184035      2.30920731250243      0.93653060628421
  H   0.71206151626398      0.70628965955889      1.63412252946599
  H   -0.53193199549851      1.63650084090308     -2.46442086679851
  H   1.18820169217245      1.59692510579774     -1.86939878935808
  H   -1.12377754347619     -0.42239474838145     -1.61035716691694
