20
Coordinates from ORCA-job orca
  C   -2.47641842525954      0.38959637015897      0.14201447069756
  C   -1.00524107397565      0.21698499777690     -0.14835623878729
  C   -0.53743096632481     -0.93427647084500     -0.99937354137653
  C   -0.24002379667262     -0.90123571143444      0.49524411785595
  C   1.16672045421208     -0.72291471449853      1.03015452321952
  C   2.17334413937138     -0.12228855520050      0.04451425327169
  N   1.94452366793139      1.22129473392183     -0.44088663957772
  C   0.84611897716407      1.82560859199216     -0.56081953450904
  O   -0.45770106062318      1.51294112964001     -0.32201198550993
  H   -2.96021568270823     -0.58252189936426      0.25985083686894
  H   -2.62086342303019      0.96492080605646      1.06145329635055
  H   -2.96669461933057      0.92457214946114     -0.67666110127613
  H   0.28255872789658     -0.74853842523874     -1.68222172164850
  H   -1.28079440673130     -1.62869340173262     -1.37507059282003
  H   -0.85347559560539     -1.55888847305390      1.10648742788418
  H   1.55194185382066     -1.70281328377637      1.34021403413038
  H   1.13444916872708     -0.10558856361479      1.93662644644723
  H   3.15932470672596     -0.11780994025386      0.52303854735768
  H   2.27997241906640     -0.78875615936578     -0.82280786484931
  H   0.85990493534588      2.85840681937132     -0.91139173372919
