17
Coordinates from ORCA-job orca
  C   -1.58844498636520     -0.60231151795304      0.76547887488968
  C   -1.03151087016872     -0.39739220963675     -0.62575364675571
  C   -0.00733608831627      0.65958306868531     -0.96860027707678
  C   0.67981895628550      1.49830899544220      0.08626703642804
  O   1.42479886817613      0.75370751070230      1.07217832128751
  C   1.71883523379845     -0.54814563799159      0.84303336665899
  N   1.29315342403679     -1.32616531917402     -0.06100171525470
  C   0.38061995375786     -0.79906917613808     -1.02738267630818
  H   -2.03415910888151     -1.59754514106670      0.85748478898256
  H   -0.82678663904102     -0.51058734771645      1.54203447908330
  H   -2.37241039914113      0.13179509637143      0.98079205276599
  H   -1.76479032512410     -0.56552151720208     -1.41130927989802
  H   -0.13914656881210      1.18820378990852     -1.90863006670868
  H   -0.02489890930282      2.11155076407317      0.65813935046185
  H   1.39085489520000      2.17407131903144     -0.40194183904372
  H   2.41580716313344     -0.90305037141258      1.59982072440524
  H   0.48559540076470     -1.26743230592306     -2.00061049391734
