13
Coordinates from ORCA-job orca
  C   -2.57324066761351     -0.32523277879387     -0.26116665491104
  O   -1.65378879720481      0.55336086180711     -0.93700106811661
  C   -0.38091856081517      0.46193338768449     -0.59886703702658
  N   0.05416941326083     -0.35553503070985      0.28674050883570
  C   1.40273236907426     -0.31548064533786      0.51230426426766
  N   2.26628459359470     -0.86855670268485      1.23667847302689
  C   2.71795951040855      0.22642332980001      0.22890747030941
  H   -2.55712898537418     -0.13358059147137      0.81361720810654
  H   -2.30063014035158     -1.36719857169023     -0.44026854875857
  H   -3.55092805706393     -0.09925694881004     -0.68346736365152
  H   0.23686580615790      1.16289084142940     -1.16494835891133
  H   3.29594723360871     -0.11387158270607     -0.62915485701694
  H   3.04267528231822      1.17410543148314      0.65622496384640
