19
Coordinates from ORCA-job orca
  C   3.28940547676488      0.19681359882804      1.16980960530442
  C   2.31810986417317      0.70496242473919      0.41719463865451
  C   1.29045481936402     -0.09006884246682     -0.33514659654004
  C   -0.14676967216804      0.23427776481193      0.10726331720809
  C   -1.20548866184248     -0.53402524581611     -0.68912808651177
  C   -2.63153132094161     -0.17826272775089     -0.29111420074289
  O   -2.85283793036522      1.19109482352248     -0.61014035882950
  H   3.41688063886078     -0.87600898924301      1.28727010000029
  H   3.99769188105693      0.82786723051121      1.69607543796564
  H   2.22711268954589      1.78800460427564      0.33000289676433
  H   1.48721499088701     -1.16194972516677     -0.21209471102250
  H   1.38083052932174      0.12452021040458     -1.40973592341924
  H   -0.33196127450804      1.30832542188804      0.00040663811634
  H   -0.25192064721823      0.00531944906325      1.17554488363768
  H   -1.08483226288662     -0.33060140566435     -1.76044836270294
  H   -1.06935168194060     -1.61466814472680     -0.55481626435523
  H   -2.77413803148788     -0.35961069780722      0.78630746039973
  H   -3.34082425728677     -0.82606497079962     -0.82909703754016
  H   -3.71804514932893      1.44699522139722     -0.27815243638678
