25
Coordinates from ORCA-job orca
  C   -2.34583109558564      0.49356101190751      0.78950014568993
  C   -1.05745777691525      0.15157324728457      0.05159001327964
  C   -1.15954178001963     -1.16952387161661     -0.82419707329739
  C   0.19474377036215     -1.92467577458208     -0.56059233616627
  C   0.99003625931054     -0.73205242979722     -0.00467736037448
  C   2.39011746663873     -0.48631158200422      0.50637101282832
  N   2.60270605945611      0.95729485571877      0.54594154744962
  C   1.81185628128176      1.91177943626648      0.28565971319455
  O   0.50464606049711      2.16701139344325     -0.12103146262232
  C   -0.52899460980757      1.39449056826563     -0.76147821538929
  N   0.04712749608442     -0.12611766929783      0.95567304547160
  H   -2.65630992110069     -0.33299190462709      1.43756796331647
  H   -2.20213876378183      1.38199955096870      1.41131345421853
  H   -3.16194752879401      0.69068959362977      0.08730921097318
  H   -1.29428541120487     -0.95123247587055     -1.88872779154521
  H   -2.02190486737509     -1.76314917775839     -0.50969996909357
  H   0.07216210646684     -2.73116941526337      0.17044500535672
  H   0.61595978946320     -2.35718415712927     -1.47248070846599
  H   1.01463999415047     -0.08631868555181     -0.88074715384121
  H   3.15777161142309     -0.92212698260715     -0.14401244264364
  H   2.56808824020199     -0.87943970344701      1.51459052047096
  H   2.21358246828858      2.91613938105469      0.43334821424600
  H   -1.33528361869687      2.12208369220269     -0.88877684833572
  H   -0.19778820606786      1.11298486023379     -1.76677805692694
  H   -0.22195402427569     -0.83731376142327      1.63388957220649
