24
Coordinates from ORCA-job orca
  N   3.21192901997248     -1.92864926152251     -3.20308080660470
  C   2.11424916725057     -1.16266218667792     -2.60833728078755
  C   1.98101926196124     -1.51597364121936     -1.11666177348190
  C   0.89408777111416     -0.80416590088099     -0.45525296407772
  C   -0.01933648805639     -0.20710051411482      0.05699121317512
  C   -1.09645622237639      0.50423909879479      0.69379832997943
  C   -1.04914986646065      2.03645499102823      0.71737279627455
  C   -0.82373881870882      1.26594362880309      1.98154431154302
  C   -1.88888313342407      1.15832017155507      3.04651929466899
  O   -3.20284347692807      0.91111709066227      2.51819785913345
  C   -3.28855912141017      0.15614210000666      1.39335523948771
  N   -2.39856144655865     -0.09167085837346      0.52851859372804
  H   3.21419856648789     -1.81208145053826     -4.21125584953389
  H   4.10605981040889     -1.57261065808729     -2.87661474818143
  H   1.18705558349906     -1.43957988379574     -3.11906976444512
  H   2.21592747498486     -0.07004372781906     -2.70688572244622
  H   1.83773162940343     -2.59886044632872     -1.02608890966920
  H   2.92922615752170     -1.29214814969343     -0.60866133590088
  H   -2.00053170548318      2.53745831086385      0.57352682402408
  H   -0.19777116829391      2.51667399982543      0.25072247216945
  H   0.19120310784924      1.22826055908539      2.36449456507269
  H   -1.98106781787494      2.07611380546241      3.63446546737903
  H   -1.63780633639397      0.33753791170130      3.73038849136254
  H   -4.29798194848429     -0.23271198873694      1.27523169713050
