17
Coordinates from ORCA-job orca
  C   -1.35263976766961      0.78872060799798     -1.04623571649244
  C   -0.66715315600093      0.87781448995102      0.31667233065680
  C   -0.53413405558639     -0.46904494036098      1.03748725140054
  C   0.41788595663708     -1.41198433049433      0.28679315183348
  C   1.64036161110634     -0.64617173390229     -0.13820658648354
  C   1.65962204743365      0.68862601326955     -0.14639632956288
  O   0.62019626184104      1.51040979236676      0.16369745878395
  H   -2.36420142463386      0.38424089044906     -0.93805707375885
  H   -1.42384204422110      1.78175986393012     -1.49713946239075
  H   -0.79397309641550      0.14480914479326     -1.73041587253716
  H   -1.22774727644257      1.57072212794014      0.95234584867997
  H   -1.52783714533932     -0.91242415013839      1.15872622429555
  H   -0.13909277243486     -0.28144402338975      2.04172647045048
  H   0.69661727590504     -2.25142043367072      0.93457767856785
  H   -0.08831088937359     -1.86458085518236     -0.57767464263293
  H   2.54285508011191     -1.17764555876350     -0.41671273416719
  H   2.54139439508269      1.26761409520442     -0.40118799664287
