16
Coordinates from ORCA-job orca
  O   -2.43743163286063      1.48008490944005     -0.68386143673893
  C   -1.47339891608658      0.82641918520389      0.04969462039660
  C   -1.41762127757973     -0.65947725528025     -0.07114736094036
  C   -1.14435134129481     -1.45746801163796      1.09692290655120
  N   -0.92308405102381     -2.11265416447344      2.02463292415694
  N   -0.37181113243101      0.21434183986339     -0.66152816768802
  C   0.94548185680179      0.26723922018657     -0.04933591251910
  N   1.83366170070405     -0.54195217320842     -0.86924795837840
  N   3.12814123426282     -0.68126351248475     -0.60066933150354
  H   -2.10683257547682      2.35170098656844     -0.93161272888911
  H   -1.25010103664293      1.24767928484857      1.03209957078769
  H   -2.06105015915280     -1.12810142450367     -0.80929542110311
  H   1.29113088338628      1.30815305980508     -0.04018366172386
  H   0.98677949926001     -0.10305230118595      0.98380442359316
  H   1.52425721607114     -0.88710182058263     -1.76586868396646
  O   3.47622873206304     -0.12454682255890      0.43031421796529
