25
Coordinates from ORCA-job orca
  C   4.82005423445017      0.01690140753635     -0.48379140193447
  C   3.54820884223892     -0.47627030179031      0.13287750671280
  C   2.32269681973579     -0.13076193312568     -0.28024791807393
  N   1.16024665077619     -0.60912338809560      0.31201468940502
  C   0.03992605237391     -0.20015120703484     -0.16204908349703
  N   -1.17105573079776     -0.54452925967133      0.36538417983281
  C   -1.25241398724724     -1.49613361718470      1.45960766444603
  C   -2.38126619569010     -0.27631193137731     -0.37032105750107
  C   -2.68995402849698      1.08259758938062     -0.89904374548496
  C   -2.79264323602822      1.83240809737913      0.39826081443139
  C   -3.49684492905858      0.52210795370235      0.22886132526970
  H   5.44046865594657      0.55502234180387      0.24472469376949
  H   4.62438210714490      0.69465031384133     -1.32031714796350
  H   5.43538129423336     -0.81049703879902     -0.86052422161772
  H   3.62490813349100     -1.16087096446688      0.97469553865342
  H   2.21669329444878      0.56111550595430     -1.12629095401485
  H   -0.04315465130052      0.48245770158616     -1.01715221009439
  H   -1.35833102410889     -2.52848328318656      1.09789115897816
  H   -2.11837604184595     -1.25338962583764      2.08111801469598
  H   -0.33690302637733     -1.43246786704459      2.04678601302591
  H   -2.71004476332253     -1.10808633154647     -0.99964560120791
  H   -2.99238083813242      1.37470511142853     -1.89262181839899
  H   -1.92479906345572      1.89817889762097      1.05103334590132
  H   -3.41660792138997      2.72252901286399      0.39252738735120
  H   -4.54818964758736      0.28440481606338      0.27477182731560
