21
Coordinates from ORCA-job orca
  C   3.91393655240407      0.75429428607755     -0.35812410783213
  C   2.53867736655424      0.21098739404688     -0.10177981747650
  C   1.96631994930389     -0.69664784926074     -0.88777165181159
  O   0.73089072705632     -1.27882526632920     -0.78095387981383
  N   -0.03095537057324     -0.78289577552410      0.33570826275629
  C   -1.33159615297433     -0.36005018661283     -0.18595859495163
  C   -2.25645731317954     -0.00553201297822      0.97769337569966
  C   -3.62396524295809      0.48919121554359      0.50035501244079
  H   4.36494655942809      0.30980278005080     -1.25067275052418
  H   3.89805301276324      1.84195438782677     -0.50149022799371
  H   4.58808412708286      0.56078661389122      0.48556450982613
  H   1.99057998214666      0.57546656087056      0.75930058542335
  H   2.45807243906890     -1.10849350043954     -1.76572672604650
  H   -0.16337418742812     -1.62047329454492      0.90172127525135
  H   -1.16106615310434      0.51957902080805     -0.81536375190285
  H   -1.78957732256906     -1.13397116064800     -0.82108298305897
  H   -2.38863192133685     -0.88697014842526      1.61937174662854
  H   -1.77190541703267      0.75764708805135      1.59627743883908
  H   -3.52443440977786      1.38272577853063     -0.12430939765506
  H   -4.26784064629563      0.74512493693844      1.34629345957220
  H   -4.13975557857854     -0.27370186787301     -0.09171477737045
