20
Coordinates from ORCA-job orca
  C   -2.19854949509495     -0.27114192820820      0.67107418478492
  C   -0.87293390026759      0.10649624018103      0.04397923906303
  C   -0.47634712023395      1.56075314112538      0.25978246832939
  N   0.89973740467407      1.94181135017717     -0.02710052033016
  C   1.80288935674505      1.05296968722912     -0.04609633599293
  C   1.65691095021262     -0.42991713231657      0.21674303855194
  O   2.60626902886230     -1.06644652899981     -0.63824119571695
  C   0.23969903096834     -0.91347827975995      0.02250327622937
  C   -0.47834885923573     -0.54885096345745     -1.25548019993307
  H   -2.17562507374391     -0.13687924867949      1.75835765495872
  H   -2.45036881287771     -1.31611793097407      0.46717091082680
  H   -3.01214813422534      0.34836420905807      0.27722731417126
  H   -0.67505779359882      1.84172253320261      1.30424768964926
  H   -1.12474801271130      2.21004576513421     -0.34250325002985
  H   2.82858446000077      1.36454818824201     -0.26251954828140
  H   1.94342643465345     -0.59404112928097      1.27135967038462
  H   2.54117386244989     -2.01746395680865     -0.50504334101214
  H   0.02265288555270     -1.88749110408218      0.45615831121852
  H   -1.15644056213270     -1.27590913725853     -1.68853557011726
  H   0.07922535000281      0.03102722547628     -1.98308279675406
