18
Coordinates from ORCA-job orca
  C   2.67322060306310     -0.34026448995763      0.46622761670226
  C   1.23995628000598     -0.77204468638450      0.62801143850688
  O   0.48825024042830     -0.13652793677324      1.69154786325351
  C   0.10526674699075      0.10714832957766      0.35631769032050
  C   0.03276751190455      1.46845871624929     -0.29489748895626
  O   -1.13906650051108      2.09479399617992      0.13333923721361
  N   -1.20706802798674      1.14804506537777     -1.01044399795640
  C   -1.26051114026095     -0.20083355782433     -0.28727224716927
  C   -2.46851423281933     -0.43776906017563      0.59062125847671
  H   3.31136270422590     -0.83128114146693      1.20661449219504
  H   2.76874035849534      0.73997452721131      0.59701689680124
  H   3.04513083388732     -0.60983728640986     -0.52790965042710
  H   1.05648899577221     -1.84526881833392      0.55563608224679
  H   0.82858387862599      2.08973420028491     -0.69771058804210
  H   -1.16627914695539     -0.96476037843287     -1.06653461738835
  H   -3.37764447693239     -0.50784082876749     -0.01332839909414
  H   -2.34880868411172     -1.37422029777825      1.14309984801136
  H   -2.58187594382184      0.37249364742378      1.31199856530572
