25
Coordinates from ORCA-job orca
  C   4.12143187618807     -1.48500575925549      2.40758600730704
  C   3.02087656182741     -1.63300903481724      1.94483593876666
  C   1.68595429216308     -1.77500040282094      1.37776253330216
  C   1.10016786561125     -0.43823005494386      0.87478394358490
  N   0.97106039353950      0.46939552600481      2.01543469087595
  C   -0.26874859201887     -0.67730898660984      0.22609969885336
  C   -0.91140746581288      0.58360545801391     -0.36009671647669
  C   -2.24135338804190      0.27015462124878     -1.05250224661062
  O   -2.92885615411737      1.41598961641964     -1.51946495385667
  C   -2.42733631163580      1.94470131304968     -2.72582039158873
  H   5.09483106300849     -1.36133336505851      2.81710448129130
  H   1.00873811221971     -2.18860796122280      2.13497227052913
  H   1.71752858519560     -2.48857861792682      0.54628907194513
  H   1.78582288432108     -0.05539540457213      0.09764701552052
  H   0.74140177836969      1.40610414105396      1.70097174149418
  H   1.86285784946497      0.53890963294053      2.49810331113737
  H   -0.14840759723364     -1.42453900010207     -0.56968480398092
  H   -0.93791587051717     -1.11358336168821      0.97840359746674
  H   -1.10916794782652      1.31518404826844      0.43108896082040
  H   -0.21982309969128      1.05246507052254     -1.07110436221317
  H   -2.08007693794009     -0.44240414240413     -1.87906381620677
  H   -2.91850938958190     -0.20933900533049     -0.33700987362368
  H   -3.08586142624368      2.76589192041833     -3.01747256724771
  H   -2.42745881230518      1.19040956829334     -3.52857420194695
  H   -1.40575126894257      2.33952718051857     -2.62722932914293
