12
Coordinates from ORCA-job orca
  C   -1.90155935854011      0.84512731489786     -0.19782986469441
  C   -0.82594512428185      0.11280611550253      0.01074006581896
  C   0.13652320347659     -0.43431135625404      0.97636389512055
  N   1.38957336008402      0.29110462788918      1.11613634723186
  C   1.94221132291181      0.27043801777157     -0.02920691222312
  O   1.34224729803903     -0.39392667036676     -1.05238812276154
  C   0.10734197396699     -0.87773056131978     -0.51659380693914
  H   -2.36474125033317      1.41310867431758      0.60333441992646
  H   -2.36042508090273      0.90837870206960     -1.18007329572923
  H   -0.17398064835244     -1.03405368515960      1.82605459703250
  H   2.88683733792261      0.73747915641960     -0.28219440463491
  H   -0.17808203399075     -1.83842033576774     -0.92873791814798
