15
Coordinates from ORCA-job orca
  C   -1.20439386746028      1.65290287446338     -0.08755209102080
  N   0.06839534761695      1.67231025312117     -0.15399207575555
  C   0.66098485221047      0.41623618977607     -0.31161110241845
  C   2.07283569414688     -0.04502359919608     -0.31601527009456
  C   1.07481076683319     -0.67073994671197      0.62993506322359
  C   -0.06062110413098     -0.89251301329278     -0.33181743031005
  C   -1.47857638834507     -0.72820025305147      0.19311589704800
  O   -2.03303507097636      0.58610760632270     -0.05551334809543
  H   -1.77785776958466      2.57636628475621     -0.06768825310994
  H   2.79339648019195      0.63377440325718      0.13388461029705
  H   2.45562257155760     -0.62860549450535     -1.15558869800445
  H   1.05677182092926     -0.66535046343592      1.70957104898213
  H   0.06724692707147     -1.58547123188330     -1.16573097927487
  H   -1.52889137994218     -0.90242468601261      1.27437053138347
  H   -2.16668888011824     -1.41936992360724     -0.29536790285013
