25
Coordinates from ORCA-job orca
  C   -1.90477921154251     -1.17040374235951      1.32558584177219
  C   -1.34676635384114     -0.06270001130759      0.46031168676312
  N   -2.13633911522175      1.13859667938453      0.55196950448777
  C   -2.15943152014812      1.92832230626602     -0.43783515974377
  O   -1.54435627837161      1.81960525458330     -1.63940947200984
  C   -1.03593811410027      0.53162006920100     -2.03116374343182
  C   -0.68073424192423     -0.35920999894962     -0.86383331291999
  C   0.15356794309116      0.14688535053393      0.28861670886855
  C   1.20669639801596     -0.72720030976345      0.93770229215752
  C   2.53647859575067     -0.71954631948422      0.15193932704479
  C   3.18637339739325      0.64366683875325      0.15895713500411
  O   3.42318319130506      1.30110657502057     -0.82353153934085
  H   -1.30189040628475     -2.07977731121146      1.27416470496770
  H   -1.96046751762657     -0.84315298144252      2.36805148543554
  H   -2.91985200246561     -1.42022163188521      1.00211682211318
  H   -2.71308295895473      2.86403687857805     -0.38685871165985
  H   -1.80466819908189      0.04524590458542     -2.64463059713529
  H   -0.17351708521935      0.74362984905966     -2.67043372156343
  H   -0.55685761914254     -1.40567765511794     -1.13475296198955
  H   0.43301918118980      1.19689584148525      0.22184893040401
  H   0.85839106556624     -1.76102178938593      1.01196481622835
  H   1.38664182740458     -0.38965792502311      1.96651977021382
  H   3.23510103091668     -1.42406918553473      0.62300626795116
  H   2.38279939681605     -1.02660312412382     -0.88642999335087
  H   3.43642859647564      1.02962943813814      1.17612291973344
