20
Coordinates from ORCA-job orca
  C   2.74233360411344     -0.24564744061768     -0.16386206382760
  C   1.47400955851367     -0.26233414691845     -1.03733071892516
  C   0.22324177076944      0.05534491211854     -0.26049324246607
  C   -0.49520081497332      1.16167770727587     -0.46861972737656
  C   -1.73874683947798      1.44779892564162      0.32253919061747
  O   -2.80919162274955      0.51073459402021      0.07537568278631
  C   -2.60090738757297     -0.80701019767045      0.31414411081194
  N   -1.58098222028830     -1.48094861060665      0.63057930281546
  C   -0.23005008283276     -0.94931550565167      0.79114203178573
  H   2.89699321486844      0.74424495101640      0.27543347394573
  H   2.67831784708757     -0.96874850866290      0.65424163640466
  H   3.62596008719806     -0.49649093284696     -0.75746025594139
  H   1.36869331017511     -1.25450084867767     -1.49581553717258
  H   1.58691958863496      0.45438286544685     -1.85723081611499
  H   -0.20495800404094      1.87233561160377     -1.23768336059855
  H   -1.53621368422599      1.45846947275334      1.40176592017521
  H   -2.16879623348474      2.41426513925027      0.05689618636791
  H   -3.55075964439714     -1.32728145797814      0.18267466352641
  H   -0.12328476416454     -0.51496415668270      1.79669972920510
  H   0.44262231684752     -1.81201137281360      0.77700279398097
