22
Coordinates from ORCA-job orca
  C   2.92494576809616      0.41236529878999      0.04971260231550
  C   1.55481669843598     -0.11857114414322      0.48223090185988
  C   0.43232157052867      0.33659121963243     -0.45855020849099
  C   -1.00716102920281     -0.06181446898398     -0.04054390162155
  C   -1.98907039846546      0.46095507853460     -1.11181582486733
  C   -1.16889885761205     -1.57409226590138      0.14657768763307
  C   -1.33434872547720      0.67699575372465      1.24988339267330
  O   -1.65398013846975      0.16873493568620      2.29512605733536
  H   3.71518739562431      0.06446472473765      0.72116060033908
  H   3.17794298501076      0.07882614346288     -0.96230014918173
  H   2.94483833798967      1.50729820474855      0.05110394168711
  H   1.34027743640118      0.21280919638106      1.50569386329279
  H   1.58598180249197     -1.21254147810791      0.51833460214403
  H   0.61301255550781     -0.06420881169476     -1.46420319958840
  H   0.47356101886046      1.42996499654382     -0.56102626311477
  H   -1.76676304476267      0.00088522937444     -2.07934997396958
  H   -1.91094734435538      1.54657998747661     -1.23241739931256
  H   -3.02477290751227      0.22098594002218     -0.85321825257610
  H   -0.85691477405882     -2.10679754650778     -0.75739572691352
  H   -0.57952147194342     -1.93957315672951      0.98933719097655
  H   -2.21228480353424     -1.82813319616498      0.35122309672744
  H   -1.25822407355290      1.78827435911844      1.16043796265244
