14
Coordinates from ORCA-job orca
  F   2.45719640648346      1.18006290327508     -0.13442193192565
  C   1.19175277546397      0.76291492693752     -0.17602946351522
  C   0.27439007163097      0.55671827483386      0.99613361899457
  C   -0.41174155020681     -0.77675729719628      0.80355683539788
  C   0.13187790438572     -1.38238418984579     -0.48232448046965
  C   -1.19499933680922     -0.70359006382410     -0.49476686137986
  N   -0.61619258837523      0.47864031888861     -1.20467439396626
  C   -0.12116164289910      1.45661139929115     -0.19948509654908
  N   0.75526201088009     -0.22008078845722     -1.18436209950686
  H   0.47987682920501      0.99581009645114      1.96266300293797
  H   -0.74008313320877     -1.39045889077384      1.63074827150875
  H   0.44805846271963     -2.40113433503402     -0.66328538003485
  H   -2.20479299377056     -1.04365017163848     -0.68098736976999
  H   -0.44944121549916      2.48729881709237     -0.17276365172174
