7
Coordinates from ORCA-job orca
  C   0.34064444180788      1.35992099130321     -0.05564946978573
  C   0.45046165201240     -0.05809426638152     -0.15837580372829
  C   -0.54613041092231     -0.89162879157027      0.14849790406628
  N   0.27206451532042      2.51419633532590      0.01908491058864
  H   1.40839100586163     -0.43120221160553     -0.50772766098287
  H   -1.50604220973411     -0.52935919353118      0.49738475235392
  H   -0.41938799434590     -1.96383286354060      0.05678536748805
