11
Coordinates from ORCA-job orca
  C   -1.72887060255651     -0.13916412221947     -0.10669577614870
  C   -0.25727611027608     -0.02557989431618     -0.01442493050602
  C   0.70638381307233      0.89814400874420      0.10767004401490
  C   1.69673355057124     -0.23898394929117      0.07523299963926
  O   0.55115461196573     -1.15889026039850     -0.05689019559041
  H   -2.02499490147842     -0.57906889493880     -1.06540714091544
  H   -2.11528942375334     -0.79134444247936      0.68401134733636
  H   -2.19363708566003      0.84414364606220     -0.01213770890183
  H   0.76230544102021      1.96948441857677      0.19531996070796
  H   2.25340389247253     -0.45631602761307      0.99160476941561
  H   2.35008681462235     -0.32242348212661     -0.79828236905168
