16
Coordinates from ORCA-job orca
  N   2.39422183176513      0.19755413708327     -1.22112701480760
  C   1.48224527554740      0.26843288307027     -0.36057280836199
  C   1.18200973265310     -0.20759323821237      1.06999159681499
  C   -0.22085443938766      0.42309332510690      0.87069553344687
  C   -1.45577143168390     -0.46131739413775      0.58990395284270
  N   -1.82752666492584     -0.00006078428815     -0.74452840879326
  C   -0.77360433409769      0.56248621133286     -1.45060954278437
  O   -0.70313636533555      0.73628513675166     -2.63803414830041
  N   0.20340117028451      0.89766482998093     -0.46772819383705
  H   3.19372817255780     -0.32347401585527     -0.86217970289501
  H   1.80014858820463      0.24088023664109      1.84998526634087
  H   1.19013021247331     -1.29434128550382      1.18270955048014
  H   -0.45863566471139      1.24342783196855      1.55136238840096
  H   -1.20732565554357     -1.53239454539402      0.60478136540676
  H   -2.25834527290463     -0.28790286682942      1.31114892045848
  H   -2.54068515489565     -0.46273946171474     -1.28579775441209
