18
Coordinates from ORCA-job orca
  C   2.57043017941225      0.63065164364155     -0.05478800562650
  C   1.63151238023534     -0.57883509579738     -0.05626538947192
  C   0.34916870149898     -0.31188752869479     -0.83021377088376
  C   -0.91568607626541     -1.13153095778179     -0.62040473573659
  C   -1.42078429106014     -0.60198200210970      0.68356308241741
  O   -2.78745582505366     -0.16553629273238      0.70041784313028
  C   -2.83681479830918      0.94244936365104     -0.08955325210623
  N   -1.75746994998833      1.34599792725275     -0.65003678870713
  C   -0.80102159014967      0.38871398248502     -0.24201864579744
  H   2.86131057925903      0.90851773424583     -1.07341812258298
  H   2.08584338940955      1.50106259980005      0.39855034389257
  H   3.48571527621491      0.42299069013475      0.50675213990991
  H   1.38149230458566     -0.86137109086955      0.97184624690561
  H   2.13278902340260     -1.44633056278039     -0.50226860828800
  H   0.52403155979271     -0.05862438181780     -1.87835399543813
  H   -1.57216249848503     -1.43344764797513     -1.42512967060971
  H   -1.11229424979296     -0.93573422303353      1.67147898583727
  H   -3.81860411470665      1.38489584238144     -0.20083365684466
