22
Coordinates from ORCA-job orca
  C   2.19629191241540     -1.63748514734400      0.57130405597763
  N   1.55459102060234     -0.89540564248400     -0.22697914214031
  C   0.68073700232670      0.12087939220730      0.32533051231306
  C   1.17485035280816      1.48556435869435     -0.16219397891985
  O   0.31643484479160      2.54067879305644      0.27909065581718
  C   -0.99928370926729      2.23128545983054      0.39352859888494
  N   -1.58175129588754      1.12108328887780      0.23864338112580
  C   -0.80248597843390     -0.07851089384501     -0.10179938751323
  C   -1.41298206678016     -1.24609260874848      0.68499719201593
  C   -0.95263928353481     -0.33785515414239     -1.61034164320182
  H   2.13053115858087     -1.55530089216781      1.66607548146109
  H   2.85884517016970     -2.40681222216038      0.17284975161056
  H   0.70585841322252      0.12393255066111      1.42867762621562
  H   2.16493619072583      1.70786671272841      0.24193222203520
  H   1.23902871659057      1.49985681267806     -1.25511290032745
  H   -1.56149173745600      3.12356010432054      0.66426256521612
  H   -1.35887443537903     -1.05570512825539      1.76110675565834
  H   -2.46607446197607     -1.36151148921771      0.41805673148896
  H   -0.89076271318511     -2.18247536302425      0.46850317134354
  H   -0.45081418895914     -1.26415956275671     -1.89666031562129
  H   -2.01460068990771     -0.41081272124108     -1.85785633534706
  H   -0.53034422146691      0.47741935233265     -2.20341399809297
