14
Coordinates from ORCA-job orca
  C   -1.69898152806048     -0.59912219666144      0.41982201357063
  C   -0.35700768724588      0.03504956572764      0.26054743484094
  C   0.00953517051053      1.19093433502055     -0.61948626739849
  C   0.79122468203214     -0.10662399818819     -0.71966990115915
  C   1.66328384524716     -0.24717988276979      0.51851742385464
  O   0.52677329580712     -0.00769280531172      1.39523995775696
  H   -2.27085411872045     -0.07516668646124      1.19376235690678
  H   -1.60603817749528     -1.64722228691506      0.71890316521853
  H   -2.26558988740971     -0.54588334211960     -0.51338755590972
  H   -0.66141249196921      1.37851003990869     -1.45190760458786
  H   0.46492076994583      2.07586257817359     -0.18176243591572
  H   0.88313210570358     -0.67840094365938     -1.63379735901233
  H   2.46559104242981      0.48578692955074      0.66619004691985
  H   2.05542397922484     -1.25885130629478      0.67006772491495
