15
Coordinates from ORCA-job orca
  C   2.62516119663602      0.45539942109865     -0.02975147348359
  C   1.60071533822667     -0.31338773152352      0.32741144245560
  C   0.24108025991934     -0.30467252851931     -0.30904556838605
  C   -0.88138108216123      0.05563953424010      0.68017055624331
  C   -2.27207444486921      0.01541705375009      0.04212061616355
  H   3.58313078668189      0.40579419742186      0.47681628992846
  H   2.54649840533710      1.16448597827321     -0.84944269590225
  H   1.72670235907930     -1.00952898958931      1.15729085047128
  H   0.23027694100957      0.39750245624782     -1.15120983552320
  H   0.02921797407580     -1.29908457663281     -0.72814516536214
  H   -0.68706692211440      1.05383301527554      1.08979743311672
  H   -0.84601444687835     -0.63493960872467      1.53204304499576
  H   -2.49983326613499     -0.98225707051309     -0.34828008448710
  H   -2.34588027171779      0.72059887406162     -0.79252002895525
  H   -3.05053282708971      0.27519897513382      0.76562961872490
