15
Coordinates from ORCA-job orca
  C   -1.84671981510484     -0.61090158628449      0.06341367280888
  C   -0.45035958734704     -0.13367043942639     -0.20986958881609
  C   -0.11668905201581      1.29187868881121     -0.54377423226936
  C   0.45386173382462      0.65915002317443      0.72417777727965
  C   1.77191062217957     -0.00920387655851      0.55458206939046
  C   1.63292937639700     -0.97943474441923     -0.35389527345890
  O   0.35685832173689     -1.13550983655856     -0.82828778067908
  H   -2.43668866040718      0.18330990451588      0.52803584145823
  H   -1.84276123358209     -1.47767736500286      0.73128708563709
  H   -2.34164213994034     -0.90031009365137     -0.86932104597019
  H   -0.92014032209585      2.01178221777994     -0.42969607712382
  H   0.57101464665004      1.49330705044858     -1.35818846169202
  H   0.12848405747987      1.02331035507234      1.69339567628608
  H   2.68337050884658      0.24694556998742      1.07317110923003
  H   2.35657454337861     -1.66297786788839     -0.77503177208097
