13
Coordinates from ORCA-job orca
  N   0.03230266419365      0.00516431906542      2.82743273442327
  C   -0.06422918591068      0.55710008610639      1.81505028628036
  C   -0.20157127302100      1.22272962203364      0.50443741692260
  O   0.62139630319657      2.34880188814754      0.39213581779606
  C   0.13652568879651      0.27703692154047     -0.69900753559545
  O   0.43600408418330      0.74319537594538     -1.76031125172144
  N   -0.01627205040563     -1.07628075282668     -0.41779927097127
  C   0.06592019588093     -2.13600688107014     -1.33113252299472
  O   0.22963425104834     -2.03966960462984     -2.51367073417041
  H   -1.26826361489173      1.46799910008100      0.37690853007852
  H   0.24113490099280      3.06963188545271      0.90534463201828
  H   -0.15992226812382     -1.33880975473239      0.54841483935212
  H   -0.05266169593924     -3.10089320511350     -0.80024494141791
