14
Coordinates from ORCA-job orca
  C   2.11878106764369     -0.27689943365861      0.18394379629695
  C   0.63278566146192     -0.44988526847912      0.09478851723446
  N   0.20216818330016     -1.66240936051325      0.19412544817224
  O   -1.18091498669576     -1.88166170836363      0.11743498816064
  C   -2.01479829742333     -0.84308784423768     -0.05627294735542
  C   -1.62534441994441      0.43700146384613     -0.16649778968180
  C   -0.21535545131008      0.74918097549343     -0.09599045537547
  N   0.36174253923927      1.89670902556349     -0.17597629535777
  H   2.48922037563345      0.20675726843749     -0.72417724403664
  H   2.36346407065773      0.39527262402729      1.01098691247919
  H   2.60512800069511     -1.24225808714443      0.32399690823352
  H   -3.04325133962959     -1.18502476235670     -0.09471058191638
  H   -2.36042043019816      1.22067402194505     -0.30573745045033
  H   -0.33320397343000      2.63563108544054     -0.30591480640320
