11
Coordinates from ORCA-job orca
  C   0.52033675722924      1.17758845523648      0.22546543728092
  C   -0.79095971538230      0.88328876563716      0.14177492420632
  C   -0.94767226041238     -0.58787904970529     -0.12836497456288
  C   0.47193068178026     -1.08131822310356     -0.18497868851113
  C   1.30602337774488     -0.04475650328617      0.02220187972803
  H   0.94648663493850      2.15550886596893      0.41223408220857
  H   -1.62054153719722      1.56949202935443      0.24668863850837
  H   -1.48991115522062     -0.78022953828862     -1.06549622833898
  H   -1.52976662273750     -1.09240499723342      0.65639917576426
  H   0.74605364488567     -2.11198228928200     -0.36564829985382
  H   2.38802019437146     -0.08730751529795      0.03972305357033
