18
Coordinates from ORCA-job orca
  C   2.17821598725596      0.89545638239029      0.03029676622539
  C   0.74795595539603      0.46913527623064      0.26709865085149
  C   0.22702989235956     -0.83148919475876     -0.33306539219322
  C   -0.78887548776707     -1.66736003108881      0.40385403323214
  O   -1.93490462309717     -0.91209652473020      0.86346718949143
  C   -2.28591511493510      0.20037049857775      0.18604544490292
  N   -1.59298924156396      0.89907205500619     -0.61639274867340
  C   -0.24894608932889      0.49670065931052     -0.86558580100423
  O   0.21392719037944      0.93460921858453     -2.10756908834736
  H   2.29527919876150      1.97296994988920      0.18175301089538
  H   2.86144886560447      0.38394632619033      0.71659416263168
  H   2.48760339509859      0.67411288105777     -0.99375330536096
  H   0.33788236894756      0.73153516426526      1.24095796456542
  H   0.91782757446922     -1.38859107354844     -0.95933746886439
  H   -1.16506949926184     -2.46420277200459     -0.24899108877598
  H   -0.37981270310364     -2.13386240614778      1.30585701907263
  H   -3.30724204814236      0.48663279861454      0.42953803117606
  H   -0.56341662107230      1.25306179216157     -2.57921437982501
