20
Coordinates from ORCA-job orca
  C   -1.10551222753864      1.44266645170767     -0.30389276326509
  C   -1.16772624058423     -0.01963479391408     -0.77134540973412
  N   -2.08805636475749     -0.85523358680933      0.02077521142762
  C   0.15055754496413     -0.77649745742839     -0.88529257864008
  C   1.48282969223772     -0.15636574043047     -1.22218790464829
  C   1.29330826563947     -0.83436092495984      0.11431099929378
  C   1.39382024240727     -0.06399092543560      1.41563067135820
  H   -0.82009816046293      1.52438881362517      0.74761597766462
  H   -0.41032888409922      2.04018274031383     -0.90209562428606
  H   -2.09620054856223      1.89851843419790     -0.40749674073344
  H   -1.57972798947205     -0.00361936779592     -1.79054953706451
  H   -1.73078145871470     -0.94422761126015      0.96890336741168
  H   -2.99164421170871     -0.39606899601969      0.10168707990477
  H   -0.02798202309890     -1.73904947319403     -1.35774483261989
  H   1.55278380622338      0.92697122954809     -1.20473826289770
  H   2.10668541910905     -0.61473261357736     -1.98241690762641
  H   1.73380703936759     -1.82644806367517      0.18611449295238
  H   1.14315907097697      0.99168123664413      1.29952784265904
  H   0.74112984403746     -0.48338193340578      2.18988890763596
  H   2.41997718403605     -0.11079641813099      1.79662501120753
