12
Coordinates from ORCA-job orca
  C   -2.20870972704397     -0.54124459904635     -0.09074247521604
  O   -1.18802845985285      0.27361575181041      0.48477038714650
  C   0.06109707817155      0.03236900217236      0.07580024243546
  C   1.12253696043207      0.72198818507725      0.53088099963038
  C   2.46249424456848      0.40610451373396      0.03958013059796
  O   2.72994019783005     -0.45512726539376     -0.77855385819178
  H   -2.05149046521958     -1.59705259391817      0.15467210175659
  H   -3.15159028655814     -0.20517996992024      0.33973024897619
  H   -2.24057384838718     -0.41897245073538     -1.17874671539489
  H   0.19930735538322     -0.76095960573378     -0.65786539744770
  H   0.99432436016773      1.51330517528573      1.26123841967508
  H   3.27069159050861      1.03115485666798      0.47820991603223
