21
Coordinates from ORCA-job orca
  C   -2.16166023576727     -0.04118435053054      0.75862076730075
  C   -0.85286373941542     -0.10139887192676     -0.01296282717296
  C   -0.13439460960390      1.23518254858873     -0.07711966663589
  C   1.35234710728086      1.16414273163887     -0.42264930612799
  C   2.11918740841658      0.27780087852946      0.56918816863279
  N   2.25525278765416     -1.14052044672801      0.14917812139505
  N   1.26584100730513     -1.85671099512678     -0.04295084743547
  C   -0.12796550967861     -1.44718760834516      0.06494235751857
  C   -0.82808798905270     -1.02245844780444     -1.20960599933567
  H   -2.83743139664893      0.70185669101452      0.31987683956462
  H   -2.67889600110978     -1.00474417402943      0.74978483007664
  H   -1.98866534829977      0.24088390851026      1.80296668775772
  H   -0.66103087208609      1.89109078648572     -0.78185022656493
  H   -0.22432946876026      1.71424787143229      0.90730609963194
  H   1.77368803028874      2.17468126086173     -0.40959882148549
  H   1.50864971631099      0.78584041684902     -1.43920530968594
  H   1.63916661271224      0.30455262435206      1.55689681342322
  H   3.14339642360590      0.63468608196444      0.69445405047607
  H   -0.65165120936473     -2.21870966617623      0.62410345991953
  H   -1.73312472143450     -1.53742605020623     -1.51450669938599
  H   -0.17742999235262     -0.75462518935351     -2.03555349186656
