14
Coordinates from ORCA-job orca
  O   1.14664398362136      1.16108213119627      2.29705394177698
  C   0.89188745198902      0.48425160949992      1.35038001434627
  C   1.21624748650336      0.43161778631608     -0.08861858159673
  C   0.67439684537339     -0.99302976690954     -0.08693528473172
  N   0.08081610657911     -0.78127261404391      1.27828335087224
  C   -1.28777018367877     -0.33292463570839      1.03944353347251
  C   -1.42265223252345      0.13952854553576     -0.19937017672434
  C   -0.09738165236485     -0.03893693275724     -0.89095823115267
  O   0.02706194451399     -0.07272196805537     -2.26262431798472
  H   2.03664579678400      0.87576168633571     -0.63572751545147
  H   1.15346367989272     -1.91891624129884     -0.37935104448536
  H   -1.98711687924550     -0.33257429714180      1.86287908130442
  H   -2.29735894737918      0.57046633963177     -0.66489969114965
  H   -0.13488340006520      0.80766635739955     -2.61955707849576
