25
Coordinates from ORCA-job orca
  C   0.09157746385771      2.66213397244705      1.71851701342149
  C   -0.24212432812064      1.68518399029547      1.09943028313887
  C   -0.63530942195206      0.48791379591016      0.34733583802203
  C   -0.49189513504403      0.76969124273788     -1.16371847308923
  C   -2.10374674110530      0.14355318641084      0.72943225827632
  C   -2.72665329218744     -1.04525837316359     -0.00960740350625
  C   0.30205255478104     -0.67920276019070      0.77464466283447
  N   1.70288254521219     -0.40994242232913      0.54530368174832
  C   2.43076689706686     -1.09113346628236     -0.39982035287525
  N   3.74787898669594     -0.66331796378094     -0.52342327297698
  O   1.98802444855222     -2.02711339599418     -1.04639369128376
  H   0.37048327527886      3.52943633942779      2.26718335053175
  H   -0.66658800546671     -0.13831624350839     -1.74540674484283
  H   0.51416442923505      1.12668628078087     -1.39231788556000
  H   -1.20308264632469      1.53736913387654     -1.48085850676381
  H   -2.71036649497103      1.03859487117358      0.55477721521688
  H   -2.13777103727671     -0.03656218829618      1.81019649129332
  H   -2.16994574864967     -1.97286860101456      0.14894065358591
  H   -3.74595449936537     -1.21249214185030      0.35087373482195
  H   -2.78611181415262     -0.87099255661187     -1.08713148069332
  H   0.06588389169017     -1.57687191331861      0.20167873226572
  H   0.13236736911094     -0.89195726715967      1.83679616953468
  H   2.12126009466296      0.35663670218952      1.04721306477002
  H   4.19503626505470     -1.02484430429873     -1.35155559381691
  H   3.95717094341763      0.30367408254947     -0.32662074405340
