19
Coordinates from ORCA-job orca
  C   2.43443509302143      0.18500821066211      0.49770039399525
  C   1.06095173357891      0.08003638607597     -0.17434792646766
  C   0.13217174173077     -0.84966203722760      0.62112099632478
  C   -1.17296963759653     -1.18131426438888     -0.10022752778982
  C   -2.11858287182824      0.00587800842449     -0.20107763689494
  O   -1.70370133436739      1.06037184354239     -1.07511324051217
  C   -0.56373060005648      1.76907492923871     -0.83151764168370
  N   0.57977069283387      1.43524942986004     -0.42196983197729
  H   2.90900251390418     -0.79763776314830      0.58065244888984
  H   2.33842370331581      0.60803782192188      1.50291437333817
  H   3.08748535172195      0.84262863884594     -0.08001980738038
  H   1.20621158928925     -0.37937988492173     -1.16546131218532
  H   -0.08568432333149     -0.39293166868750      1.59586905843492
  H   0.67863241261987     -1.77695475255377      0.82694093169540
  H   -1.70720820009810     -1.97110705227562      0.44202531816377
  H   -0.96719525001191     -1.57207102039208     -1.10451554072186
  H   -3.08652572511140     -0.30545883299063     -0.60109769667413
  H   -2.28678084140723      0.42967340508451      0.79905092165137
  H   -0.73470704820727      2.81055960293005     -1.11092928020622
