15
Coordinates from ORCA-job orca
  C   -1.38781352913235     -0.12211388453327     -1.09945174118663
  C   -0.94517975966341      0.08756531681333      0.34367157503536
  C   -0.19846289893827     -1.16868799353361      0.98330319390494
  C   0.97226542866401     -0.21048680069477      1.00164482434489
  C   0.37892219323519      0.90138394078266      0.55679277691101
  C   1.74681349130602      1.15706422058609     -0.10295108084036
  O   2.28323930094855     -0.05878332625819      0.59429309224045
  H   -0.57278311577785     -0.51347821567055     -1.71798680486790
  H   -2.22191363142990     -0.82935275362092     -1.15551675001382
  H   -1.71935105029203      0.82316704991767     -1.54017072183369
  H   -1.78188270099636      0.46744735221207      0.93863217216751
  H   -0.09131178105429     -1.99931481130895      0.28022873816359
  H   -0.55722475550399     -1.55142022381501      1.94248669202190
  H   1.77483705019754      0.96495163638245     -1.17732110571798
  H   2.31984475843713      2.05205849274100      0.15234613967073
