21
Coordinates from ORCA-job orca
  C   -2.56346238172395      0.95016361669533     -0.96561024025357
  C   -2.34523594039364     -0.27930038250625     -0.08255193302727
  C   -0.87325893874319     -0.49052248801645      0.28925277917268
  N   -0.40733550018205      0.62277011618234      1.10034228177254
  C   0.75621945583775      0.85156005785370      1.52684543923634
  O   1.96429023092308      0.23462272310037      1.41100434435861
  C   2.23373619265989     -0.79193787279137      0.44620149004029
  C   2.52601392337578     -0.20635808508884     -0.92872961699263
  H   -2.04703754729534      0.84361113705967     -1.92679101531062
  H   -3.62556303888480      1.10766479588938     -1.17548987837483
  H   -2.17556226222177      1.84587623777261     -0.47302123773121
  H   -2.71001676782752     -1.18086443353655     -0.59029110892251
  H   -2.92201893046627     -0.17876703962356      0.84377804606780
  H   -0.77930023428045     -1.43149447917730      0.84852887422842
  H   -0.28801473508514     -0.60981195165779     -0.63405139855426
  H   0.90724190243171      1.71859109480593      2.17224832828035
  H   3.11795967549938     -1.30329065174300      0.83609392708710
  H   1.42088153097118     -1.51925644515212      0.41089963629564
  H   2.80312472759546     -1.00410741680233     -1.62498980342303
  H   1.65419894603485      0.31448862361673     -1.33388735690296
  H   3.35314069177504      0.50636184311952     -0.87189255704688
