15
Coordinates from ORCA-job orca
  O   4.46596430867267      0.72106548108219     -0.17466240688525
  C   3.34182787417399      0.37886105338466     -0.16965780411660
  N   2.23694868171671     -0.09360298980877     -0.20723259431916
  C   0.87320245712853      0.30527819810929      0.05926154087156
  C   -0.08952987844251     -0.81077215949296     -0.35135128866478
  C   -1.54713682289459     -0.49286604075787     -0.01696450079714
  C   -2.18207978117747      0.58334507532375     -0.86877420280794
  O   -1.62131077338485      1.17834900757294     -1.75661851350203
  H   0.76181314947243      0.51846571291890      1.13049979557849
  H   0.63898802593881      1.21937022656293     -0.49414071534792
  H   0.00915576952169     -0.98400248779449     -1.42711917755505
  H   0.20762607378804     -1.73485682907961      0.15418430441751
  H   -1.67181319638078     -0.19467755911067      1.03515222543778
  H   -2.17641936187161     -1.38757198266972     -0.12598151778058
  H   -3.24723852626108      0.79361429375943     -0.62542514452887
