20
Coordinates from ORCA-job orca
  C   -2.35631509049064     -0.02140465742218     -0.11682672723359
  C   -0.86965745689011      0.06482479942099      0.25390451164058
  C   -0.21705739089363     -1.32116688040286      0.12687627222123
  C   1.24428256331560     -1.45521141888628      0.46683660155276
  C   2.27122072832952     -0.64286894379936      0.20159466709407
  O   2.28085339585094      0.59109947852021     -0.37174920050261
  C   1.23311403127823      1.50851713684992     -0.07532980551079
  C   -0.15535667590698      1.13032608191170     -0.58622346455197
  H   -2.88020207735821     -0.75193339698571      0.50750778698138
  H   -2.48353739072291     -0.32567314575272     -1.16190649413720
  H   -2.85489350345439      0.94459094174503      0.01030787612852
  H   -0.79917170370911      0.37431146173900      1.30634068075849
  H   -0.36810102545474     -1.67172289045562     -0.90686471762317
  H   -0.78102140894573     -2.02274630585161      0.75206593906678
  H   1.53442719909269     -2.40039647700127      0.91814452212765
  H   3.28627991202809     -0.96720025563182      0.41740872666764
  H   1.55816048981591      2.44310344713104     -0.53994209525091
  H   1.19600448635000      1.66410283423364      1.01301460945049
  H   -0.08261962857938      0.81081931022313     -1.63404194235925
  H   -0.75640945365516      2.04862888041475     -0.58111874652011
