18
Coordinates from ORCA-job orca
  O   -0.76067574009085      2.43695121954240     -0.53278209488063
  O   2.81970101323476      0.70782085398492     -1.78212294724040
  C   2.93769159308124     -0.14528695972844     -0.95233008301092
  O   2.02964344780599     -0.51524854804271     -0.00582146732642
  N   0.81671598124262      0.18533924737025     -0.15837850401722
  C   0.06512668782373      0.01366304716641      0.84907076789688
  H   0.35879107630455     -0.58176084765154      1.71525990791898
  O   4.00730410130665     -0.93113033355245     -0.75485062853096
  H   4.66313895248958     -0.66252516998269     -1.41186702131043
  H   -0.00095319858445      2.00646472354771     -0.96637896406239
  C   -2.55291682811945     -1.24067796000900      0.30607608974891
  O   -1.63227675559471      1.30488865263662     -0.34829584605755
  C   -1.29465370208317      0.70122527348204      0.88764729152403
  H   -2.95457394612791     -0.85781602960828     -0.63586271444464
  O   -2.30497181000718     -0.18158911002130      1.23429166218399
  H   -3.28937861684059     -1.88848220065371      0.78226245974082
  H   -1.26368952604203      1.46740458460606      1.67471830714684
  H   -1.64402172979880     -1.81923944308630      0.09936678472110
