25
Coordinates from ORCA-job orca
  C   -2.13573746930660      1.24513530691484      1.04336429107993
  C   -1.47244420133459      0.43733771597839     -0.07911672581165
  C   -2.50978591988384     -0.41978673103153     -0.81533834077219
  C   -0.32933372396792     -0.42643651696208      0.46320462968509
  C   0.90635210298790      0.31547533922358      1.04952566563425
  C   1.83954378285517     -0.40883057910254      0.04529563682678
  C   2.64388406211255      0.48249821925278     -0.89124519748747
  O   2.69517467868429     -1.28834985025723      0.76479824132062
  C   0.59676128582082     -1.11534804237106     -0.58183347913862
  H   -2.92425244698281      1.89603154961818      0.65161620513479
  H   -2.59549838698988      0.57836298302838      1.78242541689820
  H   -1.41490225593484      1.87684342195321      1.57118231920614
  H   -1.04344937374416      1.14860106425542     -0.80173580806762
  H   -3.30180044573379      0.19966084447716     -1.24867838563631
  H   -2.98482163861553     -1.12899772370387     -0.12700146974535
  H   -2.05758829889437     -0.99856732252485     -1.62657877894617
  H   -0.74879519740888     -1.14688586591447      1.17478700353481
  H   1.14767765196013      0.07864023616177      2.08756478724089
  H   0.88491539592684      1.40395113967798      0.93932437778149
  H   3.14999907853108     -0.11615275747078     -1.65955474338780
  H   3.40516572576808      1.03243148162217     -0.32882539445153
  H   2.00131294158588      1.20361591111682     -1.40552668517749
  H   3.20692912103607     -1.79944975707081      0.12688825314565
  H   0.64573834082134     -2.20488039575294     -0.51106902339793
  H   0.39495519070706     -0.84489967111850     -1.62347479546853
