24
Coordinates from ORCA-job orca
  C   3.50919819739757     -0.41905073451218      0.84450866863946
  N   2.67884665890502     -1.21302539113012     -0.05074077511788
  C   1.30329848145761     -0.74991970206428     -0.20510894495164
  C   1.10452420453829      0.59625042995433     -0.92338471770618
  C   -0.37903695231764      0.98501354848958     -1.07743134264279
  C   -1.05570834742056      1.28106163964553      0.23147965765203
  C   -2.15316446697040      0.68496050488905      0.69891353678228
  O   -2.80928808095780     -0.29588372415690      0.01775481346891
  C   -3.96264800021292     -0.81269492902289      0.65537848572115
  H   3.07098612600321     -0.43457145730190      1.84855392003625
  H   4.50315130910661     -0.87136734311207      0.91273736441494
  H   3.64207685852005      0.63767840337313      0.55640135353607
  H   3.12290291963122     -1.29094969160862     -0.95973454633607
  H   0.85353092705820     -0.69824114932938      0.79362707732107
  H   0.74725564331570     -1.52271493624173     -0.75120657492718
  H   1.56476806682436      0.53878663225818     -1.91872808209037
  H   1.63049498793787      1.39277116113237     -0.38302697229576
  H   -0.43734936303943      1.87352835724806     -1.72110089978503
  H   -0.91960405432952      0.18915764495031     -1.59970639398229
  H   -0.61678357812770      2.05207628051415      0.85906864856763
  H   -2.58645561380213      0.95887688868651      1.65934856359405
  H   -4.72620700314469     -0.03661821675722      0.79809834772339
  H   -4.36431584349235     -1.58919758363500      0.00298017135578
  H   -3.72047307688059     -1.25592563226891      1.63022364102218
