16
Coordinates from ORCA-job orca
  N   2.10190842170313     -0.12320514970595      0.07312671654956
  C   0.73660399087117      0.05947579017684      0.38504720026722
  O   0.33665114772937      0.44514890825474      1.70596917757980
  C   0.05153954146142      1.33874996655475      0.60833936012005
  C   -1.37234781189985      1.22692878670349      0.09310823493043
  O   -2.16489542163976      0.26555179892424      0.79634306922382
  C   -1.55548441245299     -0.13986282872674     -0.42280406557627
  C   -0.25677740400134     -0.93583358129533     -0.25973629270475
  N   0.24430735308794     -1.30277268687852     -1.62372421117177
  H   2.68492017295591      0.49686934853907      0.62500995283645
  H   2.39977311454174     -1.07894777797778      0.24546494223813
  H   0.55586700291537      2.30068609248648      0.62693054024418
  H   -1.89510582286992      2.09658330891682     -0.29216283732114
  H   -2.22622232369595     -0.39864634842916     -1.23814184963290
  H   -0.36237300851080     -1.84298437830874      0.34390260542725
  O   0.72163545980455     -2.40774124923421     -1.66667254301007
