8
Coordinates from ORCA-job orca
  C   0.76506516356258     -0.01489871419949      0.01099419086286
  C   -0.76506517585074      0.01489875621046     -0.01099418904383
  H   1.18731447021585      0.53880763158525     -0.83323057162114
  H   1.16002494938894      0.43275412702297      0.92814122761344
  H   1.14527296984708     -1.03955845407731     -0.04485223388547
  H   -1.16002479702622     -0.43275343862554     -0.92814161008155
  H   -1.18731443458518     -0.53880828718034      0.83323016070263
  H   -1.14527314555231      1.03955837926400      0.04485302545306
