17
Coordinates from ORCA-job orca
  O   3.65949624311809     -0.66274800831955      2.49337687415245
  C   2.91816022165557      0.01827706135637      1.83719873022626
  C   2.90272189853470      0.02758409754524      0.30624146309006
  C   1.54185005706903      0.02374425757764     -0.21142706092319
  C   0.39023366230900      0.04069894550974     -0.56328849419048
  C   -1.00874159969422      0.03789817822949     -0.97979060943983
  C   -1.94534725241603     -0.38984621938532      0.13640730736239
  C   -3.31998509916090      0.11381690223348      0.22024916795224
  O   -2.29704909084443      0.60778713009142      1.09130324941987
  H   2.18077793969982      0.70755063733325      2.30259783222231
  H   3.49246006038805     -0.82199778515516     -0.05142893143815
  H   3.42423579273142      0.94299686434071     -0.01184757192905
  H   -1.30424243709308      1.03619896228631     -1.32270265084312
  H   -1.13943750105308     -0.64492264938795     -1.82989714141325
  H   -1.72446686759458     -1.36681062434304      0.56729640912054
  H   -3.68009408483989      0.82071656107965     -0.52612443409542
  H   -4.09057094280947     -0.49094431099226      0.69501386072637
