16
Coordinates from ORCA-job orca
  O   3.48188934798769     -1.25365421152138     -0.02514505398602
  C   2.90136139821714     -0.22257321213793     -0.24703902211164
  C   1.42062430440969     -0.10969959889095     -0.40139643888865
  N   0.84612344319690      1.00924529893323     -0.62520569415911
  C   -0.58724558910118      0.71824738408154     -0.70507947608914
  C   -1.36739712405097      0.97275826524300      0.61876742411504
  C   -1.43715988298251     -0.56963778222512      0.86511350748054
  C   -0.69100596152537     -0.81966923268929     -0.46447640246919
  O   0.68336175481723     -1.24346056003914     -0.31100697258570
  H   3.41030189947083      0.75368550746084     -0.36131641431260
  H   -1.01992790895661      1.15307618601959     -1.60852650371847
  H   -0.79485568506457      1.53902462881556      1.35536923631993
  H   -2.33622667517000      1.45606908803517      0.47989524525779
  H   -0.89379624614773     -0.93085575393844      1.74035845765653
  H   -2.44771224236215     -0.98258418531863      0.88784524364272
  H   -1.16833383273840     -1.46997182182804     -1.19815813615204
