20
Coordinates from ORCA-job orca
  C   -2.55659315715474      0.28262016243303      0.31336615404286
  C   -1.11416297172440      0.05238470881431     -0.15762687152062
  C   -0.81535929597912     -1.44978742062377     -0.25402248373202
  C   -0.13657198534164      0.81403175813964      0.75705484093996
  C   1.30389868404481      0.91286800244517      0.27778146193361
  O   1.97666465884579     -0.34758675435338      0.51716095020737
  C   3.26301729133490     -0.40173328013109      0.14853402455464
  O   3.88786979223779      0.48835083154143     -0.36310690307981
  H   -2.70834190591402     -0.11754611337193      1.32255995957788
  H   -2.80676472685707      1.34828437087466      0.33730306446961
  H   -3.27177701628190     -0.21429512369914     -0.34919461900819
  H   -1.01929076960598      0.48245233569840     -1.16530810595320
  H   -1.55352057884627     -1.94722512738614     -0.89145924752809
  H   -0.85919688850371     -1.91993563924239      0.73504253668033
  H   0.17570042191474     -1.64709778058441     -0.66655715639664
  H   -0.49727838680594      1.84444015271417      0.86567588991098
  H   -0.14594620965099      0.37890080284727      1.76453934575389
  H   1.36828023102184      1.14790123209722     -0.78983966473832
  H   1.84907342490676      1.69324705361336      0.81692693557467
  H   3.66029938835914     -1.40027417182641      0.38993788831109
