15
Coordinates from ORCA-job orca
  C   -0.27529355203724      1.33110303541299     -0.56141566549972
  C   -0.16410123788336     -0.18239679140271     -0.35216319295603
  C   -1.49275850460531     -0.78900962173315      0.11056580771348
  C   0.94850449505718     -0.53107157422687      0.66561569411332
  C   2.27642182631497     -0.09550269671364      0.24011904428965
  N   3.32078080125867      0.25507027065013     -0.11140931523540
  H   -0.56646932004005      1.83347330848360      0.36833329234087
  H   0.67330088929243      1.76093934827524     -0.89420751060876
  H   -1.03364365389437      1.56216831848079     -1.31484092648787
  H   0.11493946243501     -0.64389065288719     -1.30707757525628
  H   -1.42302225805906     -1.87530106684274      0.22500851140216
  H   -1.80311665980695     -0.36865266714127      1.07390469257265
  H   -2.28573598316323     -0.57862102910797     -0.61260186895139
  H   0.72808601211865     -0.06552154341604      1.63420172816863
  H   0.98210768301266     -1.61278763783117      0.83596828439469
