14
Coordinates from ORCA-job orca
  C   -0.97908471838367     -0.73720124691831      0.04271321533745
  C   -0.95864715826472      0.73339957142771     -0.46775360528968
  C   0.43831383784505      1.24628458999372     -0.17251549806300
  O   1.43749641718821      0.64222174011690     -1.00995431529138
  C   1.28040737015156      0.15714365632849      0.33343070143001
  C   0.48423394507672     -1.13268414989710      0.39781583279769
  H   -1.42675791773831     -1.42002855172884     -0.68293313042417
  H   -1.59650982297817     -0.79679410733187      0.94441776446576
  H   -1.71874297942518      1.34426346050677      0.02938647444023
  H   -1.14856249079341      0.79551313295943     -1.54421681503683
  H   0.60497861376635      2.29425701949863      0.06883833062657
  H   2.13502380905334      0.31530030950637      0.98827572304307
  H   0.89832833883444     -1.85094037035851     -0.31725667422936
  H   0.54952075566777     -1.59073605410337      1.38975099619364
