19
Coordinates from ORCA-job orca
  C   -1.32140287111235     -1.20773514613921     -1.08220612241396
  C   -1.07814892340285     -0.15588527855970     -0.01117667618798
  C   0.33536547703283     -0.16167718362946      0.58509844142772
  C   1.43533628629386      0.06127276872142     -0.42395842204594
  C   2.77892227888204     -0.49664072238888     -0.24047452212179
  O   1.86946398653899     -1.07982486723877     -1.17653469360125
  O   -1.33669086404527      1.13586523914434     -0.64270813986244
  C   -1.75294524523720      2.13283336109180      0.14905542274663
  O   -1.91623502492083      2.08053026810277      1.33977268773364
  H   -0.63949235979827     -1.08296932053525     -1.92556098539518
  H   -2.34922122835560     -1.14507139099816     -1.44806525709214
  H   -1.16170331241024     -2.20545391183916     -0.66481260470199
  H   -1.79560184035822     -0.26446044394815      0.80649526006732
  H   0.49430117460350     -1.12586494185935      1.08038128179430
  H   0.38744602861940      0.61319549361835      1.35767407328873
  H   1.34365399205591      0.96978108382879     -1.01982223191253
  H   2.99377078701845     -1.10051828942248      0.64047878632383
  H   3.64122004723283      0.00693971591677     -0.67455298912521
  H   -1.92803938863701      3.02568356613433     -0.47182730892176
