24
Coordinates from ORCA-job orca
  C   2.32176621297094      1.04133816086695     -0.61431865245316
  C   3.18008093288269      0.38770508940348      0.43622585586964
  C   1.71729436268654      0.63986932083477      0.70996645616629
  C   0.78299062392035     -0.53273164959949      0.87551657593535
  C   0.08858308212936     -1.26048051571839     -0.30818345841313
  C   -0.92324468814867     -1.70859212753680      0.76790459966117
  N   -0.71614876302766     -0.22443802505214      1.12417852950965
  C   -0.79219438554380      0.00806340405337     -0.40845829635071
  C   -2.16290987805237     -0.03548340623543     -1.04091830877392
  C   -3.30962996009134      0.63584270710600     -0.40928541436588
  O   -2.65252555958812      1.21646965791624     -1.53526365868430
  H   2.45744171452599      2.09701727830346     -0.82033402334897
  H   2.06597593338334      0.45041178226834     -1.48717330838868
  H   3.48664089059253     -0.63876083997741      0.26043840290806
  H   3.91682411956645      0.98596188137864      0.95978268420686
  H   1.50200378516428      1.45031182227418      1.40190583529283
  H   1.15965128317339     -1.19719985791321      1.66111375909349
  H   0.53752354483760     -1.84884633291346     -1.11816376063629
  H   -0.58027051722736     -2.39746100641450      1.54437344036866
  H   -1.94185751883976     -1.94883247367717      0.45964138891023
  H   -0.29853886489028      0.93360525379051     -0.70351143128263
  H   -2.36768854858973     -0.87532155647483     -1.70604279256845
  H   -3.15308771545356      1.14181451496990      0.54069409733468
  H   -4.31868008638082      0.26830391834699     -0.59008851999078
