14
Coordinates from ORCA-job orca
  C   2.02742539713483      0.08324729720944     -0.39329690675234
  O   0.73944557220196      0.43266414552947     -0.85397649100469
  C   -0.24386298048093      0.37058394077884      0.14271708609427
  C   -1.64544989532016      0.67456118328597     -0.40021234260977
  O   -2.12604539980118     -0.63642702517462     -0.03140856794183
  C   -0.83022004106058     -1.02445343923365      0.47228139052488
  H   2.35858814944471      0.74779849087463      0.41981640535383
  H   2.71048026820284      0.18374587806599     -1.23856176239025
  H   2.06654912842284     -0.95303284481587     -0.02583612238311
  H   0.06501909980309      0.95480675183815      1.02189368788060
  H   -2.20145737172127      1.47310320264011      0.10464781743710
  H   -1.66389621606393      0.84276833740149     -1.48331402128003
  H   -0.87044073225661     -1.30306907760178      1.53230312079139
  H   -0.38613697850563     -1.84629584079816     -0.10434029372004
