19
Coordinates from ORCA-job orca
  C   -1.31450113764496     -0.11729030557510      1.04021199679239
  C   -0.61839542453064      0.12626439470012     -0.28610973113545
  C   -1.14447107038776      1.33440765786481     -1.03835861537707
  C   -0.16228546315575     -1.06209779785147     -1.10135759347593
  C   0.85919428744487     -0.17365168969031     -0.42115760271569
  C   1.69609995342604     -0.68671340209490      0.72595585541805
  O   1.97430171000865      0.30560145522952      1.70947408469662
  H   -1.11354717519940      0.70026859418546      1.74006032820924
  H   -0.98792418304656     -1.04508029711559      1.51398513395665
  H   -2.39866026297011     -0.18499804926369      0.89618740061345
  H   -2.20943302623216      1.21955814210399     -1.27065360815499
  H   -0.61170933115047      1.48310426412293     -1.98255460200466
  H   -1.03220005784465      2.24729134129752     -0.44227256673575
  H   -0.31895652707364     -2.05204790198338     -0.68339143277736
  H   -0.24569923013132     -1.02247175288178     -2.18236094070632
  H   1.40240197300483      0.49923072981540     -1.08435589118775
  H   2.62848439745771     -1.12335595021142      0.33369870081760
  H   1.17649336568091     -1.48683268706345      1.25929953763437
  H   2.42080820234439      1.03881225441134      1.27370054613259
