24
Coordinates from ORCA-job orca
  C   3.26882281685096      0.26220937803781      0.51755077391034
  C   1.87841235903315      0.89488240852710      0.40911147449137
  C   0.71257056527180     -0.10805840901924      0.33679040037060
  C   0.78428377029192     -0.99036993815136     -0.91675550484104
  C   -0.63195253426450      0.63784488327674      0.44080360950508
  C   -1.84854578522260     -0.25239596747791      0.59957196424963
  C   -3.23142301665522      0.31170876726276      0.39666076774083
  C   -2.67414331349173     -0.68492183125365     -0.58760768912039
  H   4.03770291216921      1.02801619188027      0.65957085349832
  H   3.53524263246241     -0.30342486676198     -0.37990617449422
  H   3.32558475109467     -0.42403220529312      1.37007036154416
  H   1.84168982984812      1.54904104534092     -0.47345331869582
  H   1.71898223162525      1.55075877187812      1.27428965257804
  H   0.78976138136799     -0.76543664073239      1.21676397478312
  H   -0.04370983522604     -1.70253060430480     -0.94916285411960
  H   0.73174401028823     -0.37816643662300     -1.82563178431590
  H   1.71470139964152     -1.56333354845347     -0.95725818904941
  H   -0.58157695777072      1.32416595864905      1.29701364013943
  H   -0.76421745116932      1.27363959416943     -0.44689639304053
  H   -1.75481689120257     -0.98507716553537      1.39940897969068
  H   -4.02541524486945     -0.01210548566487      1.06096521037767
  H   -3.31257903098512      1.34835450305423      0.08460877752802
  H   -3.09113262944338     -1.68660896656727     -0.59465499840888
  H   -2.37998696964459     -0.32415943623798     -1.56806453432152
