16
Coordinates from ORCA-job orca
  C   2.67235111574869     -0.04688737301061     -0.49694206845272
  O   1.34565641064602      0.01954097327434     -0.95824810692673
  C   0.42250694806785      0.34325981343249      0.06320102659114
  C   -0.95735970178026      0.42772155876352     -0.52511652677257
  C   -2.15564191744032      0.17723173661744      0.35526480006390
  C   -1.77525616010053     -0.82293619832595     -0.70607530755444
  H   2.79992033064823     -0.82002432194813      0.27803643152986
  H   3.00956724063363      0.91309629454642     -0.07349738937310
  H   3.30512975051779     -0.29758836650425     -1.35112706225087
  H   0.70437671473913      1.30082222516426      0.53539170499941
  H   0.44706726242852     -0.42251838881305      0.85957990122068
  H   -1.06219294968866      1.19351879451919     -1.28872444952018
  H   -1.97917774786592     -0.08619952929127      1.39337177210397
  H   -3.03973014522199      0.78541309929446      0.19998168612195
  H   -1.33491305620265     -1.76275695350966     -0.38977165292439
  H   -2.40230309512952     -0.90169336420918     -1.58712075885590
