21
Coordinates from ORCA-job orca
  C   1.84501840502638     -0.61238752197382      1.03574409500290
  C   1.42555780055825      0.61808897472318      0.22311094910396
  C   0.44648986297092      0.38014152781421     -0.93864077821152
  O   0.40484610211750      1.55453905193658     -1.75728359143915
  C   -0.99624843971379     -0.06806500532569     -0.59429101877128
  C   -1.11824018770141     -1.56177161021202     -0.26332140669342
  C   -1.65950823468525      0.79911641269649      0.48383422311675
  H   2.15037911320809     -1.43674649261420      0.38272148610171
  H   1.04472649859377     -0.98070728626467      1.68169437144717
  H   2.69585698216898     -0.37230603306941      1.68018470741774
  H   1.00943201759966      1.37980373860016      0.89580935427903
  H   2.31346582315194      1.07201960329642     -0.22965083601176
  H   0.87780516530173     -0.38330423979634     -1.59847125490802
  H   0.10278472949418      2.29001470839524     -1.21331622199952
  H   -1.54178849683767      0.10004394985984     -1.53133488110920
  H   -2.17165269501938     -1.85391658004184     -0.20544708283401
  H   -0.65820300643128     -1.81674575644366      0.69438598226977
  H   -0.64646540388264     -2.17870354907165     -1.03494225074156
  H   -1.21290701340683      0.63913945945246      1.47064525146331
  H   -2.72506538562780      0.56361937137492      0.56484059229312
  H   -1.58628163688535      1.86812827666379      0.25372831022397
