14
Coordinates from ORCA-job orca
  O   0.07330150408013      2.66295144806324     -0.23101207350358
  C   -0.06385775380132      1.45834099930904     -0.18684978238207
  N   -1.22571277667716      0.79199828261377      0.13190246020679
  C   -1.20106016731932     -0.64648593449610     -0.07732011655810
  C   0.27331436959124     -0.93301200810259     -0.35338623431198
  C   1.25118499424427     -0.52350362203272      0.70680982877357
  C   0.97477293543432      0.40271543117109     -0.46041664247951
  H   -2.05366449478190      1.30509509113378      0.38771101067101
  H   -1.81893802231095     -0.93804938866440     -0.93741373334045
  H   -1.57216379545957     -1.19047871187310      0.80015505157258
  H   0.51617555243250     -1.75731072990006     -1.01219681898099
  H   0.87853867221716     -0.24194398400939      1.68695614728912
  H   2.21434764102142     -1.02100683327783      0.72032269952429
  H   1.75376134132919      0.63068996006526     -1.17526379648068
