18
Coordinates from ORCA-job orca
  C   1.94691138708626     -1.48315928367250      0.16775221120072
  O   0.53064362453164     -1.48975630311671      0.07482206041217
  C   -0.01752136957545     -0.23577855898804     -0.11043045170011
  C   -0.06290109823048      0.44846366495605     -1.46160945313048
  O   0.31274964495284      1.76908946479292     -1.70515235485712
  C   -1.35414623653165      0.14947845179256     -0.76908920090848
  N   -1.64802069479031      1.16256491384702      0.26384543302105
  C   -1.71468494404755      0.42485189684152      1.53936079715904
  C   -0.37493326138125      0.73530657679888      0.98640903260745
  H   2.26495221372053     -2.51995019622777      0.29069027899808
  H   2.29444855639034     -0.89990270542354      1.03140767199453
  H   2.40731738493919     -1.07296816048488     -0.74205350657230
  H   0.13849435058095     -0.25613526536131     -2.27246125012442
  H   1.27368487867486      1.80843771469704     -1.75236575996480
  H   -2.14592088153787     -0.45192586069977     -1.20199117265053
  H   -2.06504310834502     -0.60464946053321      1.54129977482679
  H   -2.07012319000643      1.04027640389835      2.36022205119147
  H   0.28409174356941      1.47575870688340      1.42690783849695
