22
Coordinates from ORCA-job orca
  C   -1.27249586526325     -1.38974694140207      0.48410483283292
  C   -1.27275356985232     -0.05324193889059     -0.27216707522549
  C   -2.30053704482897     -0.08574359836228     -1.40874282876255
  N   -1.66816525795902      1.00184439205929      0.67429523144883
  C   0.11717628540305      0.20468895773302     -0.88145032077719
  O   1.06539386652974      0.32942986037462      0.18047534998821
  C   2.34038909904559      0.60882945343104     -0.24369923301392
  C   3.45792472533174      0.10838325240413      0.54585896966492
  O   3.12235180879363     -0.46967733429636     -0.73125290363889
  H   -0.51781603645510     -1.38633454270191      1.27496636219552
  H   -1.04846052274539     -2.22200517663845     -0.19037866918600
  H   -2.25139646331555     -1.55821334276508      0.93909909206675
  H   -2.32075448832158      0.86678467116283     -1.95095808383698
  H   -3.29914703025082     -0.26103236603969     -1.00122707028703
  H   -2.07320220054349     -0.87785761345437     -2.12842182697710
  H   -0.93736907822758      1.10895617267422      1.37346977424981
  H   -1.72368427159229      1.89587536842860      0.19100113999223
  H   0.10218195265105      1.13581011983074     -1.47072811225065
  H   0.41754538931480     -0.61608400672589     -1.54685339963167
  H   2.42711882655726      1.52598534225610     -0.83315218344515
  H   4.39987820781079      0.65277390237781      0.58421647278794
  H   3.23582166791772     -0.51942563145571      1.40644148180547
