16
Coordinates from ORCA-job orca
  C   -0.37545187986108     -1.63543963886206      1.06004641365683
  C   0.94910599690934     -1.19475777135665      0.41843297080628
  N   0.67494550479552      0.18100105977518     -0.03228440567553
  C   -0.73937342341180      0.14612054687578     -0.35411462298814
  C   -1.45474158672909      1.30678732279271     -0.85200467545601
  N   1.78652522477503      2.13767645688726      0.84439833465790
  O   2.24922789220402      2.14214253439061     -0.21798104100682
  O   -1.36547073961069     -0.84853805373322      0.38565274275609
  H   -0.60090758957517     -2.69300661185930      0.90440313316501
  H   -0.40696242145942     -1.41235672273187      2.13220411107070
  H   1.80386246634832     -1.20289566543272      1.09264357421280
  H   1.18067972600923     -1.78765686846057     -0.47067139978448
  O   0.81852915564936      1.03507784423167      1.10072503488119
  O   -1.07488982936597      0.20108197601955     -1.71377073347909
  H   -2.51979035496257      1.38536337976632     -0.64729764265349
  H   -0.92528714171503      2.23940021169732     -1.03387879416324
