16
Coordinates from ORCA-job orca
  C   1.25036420129449     -0.72526719378905      0.55889483075829
  C   0.46955561355405     -0.00634979397718     -0.54550031616090
  C   0.71521871575434      1.50918864717651     -0.52729190555124
  C   -1.02464163302506     -0.27919788402766     -0.50592318474110
  C   -1.78159680507384     -0.61618212516466      0.70695167999385
  O   -1.46529769040184     -1.61616604874227     -0.26650305404206
  H   1.04905740847900     -0.28545728139248      1.54141749395484
  H   2.32642699075910     -0.64464838132116      0.37981337800366
  H   0.98775772886402     -1.78572106410982      0.59465264342855
  H   0.82072851248257     -0.39526939560158     -1.51196469197498
  H   1.77877697772244      1.73376377970881     -0.64999484425853
  H   0.38744620563425      1.94544344231871      0.42252684563455
  H   0.17333365554025      2.01444475137745     -1.33345272453256
  H   -1.58191474233077      0.22135572295736     -1.30172259204944
  H   -1.27047857663198     -0.72291561969466      1.66122501610534
  H   -2.83473456262102     -0.34702155571830      0.77687342543174
