20
Coordinates from ORCA-job orca
  N   -4.61407622399236     -0.40192509218169     -0.36434157466962
  C   -3.47964191732345     -0.25546898431148     -0.52638886098538
  C   -2.04056213205374     -0.04383437358869     -0.69443309052283
  C   -1.28996133816500      0.18241509571870      0.64196845569668
  C   0.07678240768391     -0.46047630972373      0.36555859352186
  C   1.13718952719538      0.50956949422870     -0.12760994365311
  C   2.58250335395832      0.09169505032470     -0.14111310937849
  C   2.10934975294069      1.12447946677956      0.85032300225625
  C   -0.23603696126510     -1.49185287665865     -0.72101083476111
  O   0.43267193196026     -2.40874332063612     -1.09126844111278
  O   -1.45283148425203     -1.20704210999369     -1.29271902157024
  H   -1.90053857744194      0.80341218215786     -1.37622811275665
  H   -1.81295025935452     -0.33679663457986      1.44730444741209
  H   -1.23294595861670      1.24171412216371      0.89484315510783
  H   0.46079466504396     -0.99563032608555      1.23722317333333
  H   0.81642691910162      1.14809629313600     -0.94804887919439
  H   2.81407951960078     -0.90246263897390      0.22360856039167
  H   3.19991340731152      0.41272370356497     -0.97159396353639
  H   2.03086254959370      0.83176569804417      1.89214125195896
  H   2.39897181807469      2.15836256061498      0.70178319246232
