19
Coordinates from ORCA-job orca
  C   2.16489185728373     -0.28717808061679      0.98813238971436
  C   1.87262695735930      0.51533105118661     -0.28156533769019
  C   0.40227965564416      0.58711433209387     -0.67564046566774
  C   -0.41198174591113     -0.71853590075054     -0.81043993557911
  C   -1.26562841848954     -0.15686684900868      0.34527430540197
  C   -2.72543669309932      0.14191121034056      0.07175793851860
  O   -0.45494083279258      1.04741474712839      0.40354173560424
  H   1.88926831686082     -1.34133466487393      0.88211567809284
  H   1.60760102249006      0.12259885677775      1.83466570107365
  H   3.23028589495843     -0.25449892261184      1.23304190457146
  H   2.42433860905712      0.10243537696767     -1.13740255717159
  H   2.23643970970518      1.54225473936181     -0.15317287383590
  H   0.30166324390575      1.25236474495198     -1.54386703084917
  H   -0.94123808670193     -0.83963159830269     -1.75809535046098
  H   0.13017533539272     -1.64039742933195     -0.59334799571905
  H   -1.16702090698173     -0.72200507959653      1.28214223381134
  H   -2.84045745500992      0.70519025878475     -0.85950535832102
  H   -3.29659650237636     -0.78969291299023     -0.01096500750041
  H   -3.15627096129476      0.73352412048978      0.88509102600669
