25
Coordinates from ORCA-job orca
  C   -1.77524664506540      0.42585309001342      0.91773765230802
  C   -0.97899394507990     -0.29911286173094     -0.18072206563133
  C   -0.97924276209890     -1.81927209648435      0.07043415851614
  C   -1.63188614450968     -0.07829840917268     -1.54543587668586
  O   -1.75499165522758      1.36035457129335     -1.83889039339550
  C   -1.22599155811781      1.78077134633830     -2.93270025110781
  N   -0.76046530256718      2.20444420142403     -3.90933843958629
  C   0.46555279198961      0.22129401778180     -0.23533914563734
  O   1.08903870540123     -0.02105729728382      1.02323510931565
  C   2.35434066755840      0.51158556598473      1.12165716458757
  C   3.32076461588572     -0.16553843944854      1.97575827366009
  O   3.41744665239684     -0.22084065838443      0.53892578552689
  H   -1.28984089386242      0.28927843389781      1.88576107125066
  H   -2.79311065415538      0.02859529093771      0.98411769336753
  H   -1.84226081283646      1.49808684173334      0.71601105102822
  H   -2.00106205277707     -2.20704411728750      0.12746325499092
  H   -0.45271301650722     -2.35778466510854     -0.72474287301111
  H   -0.47598934694923     -2.04101779783682      1.01299729740089
  H   -1.06203890317182     -0.54225627266500     -2.35430155731658
  H   -2.65348526262369     -0.46478366345595     -1.55411619029302
  H   1.02723984198710     -0.29144031646315     -1.02903126604263
  H   0.47673392637904      1.29888572401701     -0.45249111291104
  H   2.40166210466550      1.58964114003194      0.94906710675828
  H   3.02024711435839     -1.09629449356348      2.45230629280279
  H   4.10429053492788      0.39594986543175      2.48094626010485
