19
Coordinates from ORCA-job orca
  C   1.79942399413688      0.86973735256570      0.26490116170962
  C   0.68515183335463      0.03470245505439     -0.35772449037640
  C   0.96440752254433     -1.47337174770049     -0.37507270128197
  O   -0.30127716260394     -2.12981841044880     -0.41254773247479
  C   -1.34120788138081     -1.19275086409015     -0.14022171015335
  C   -0.66820562221068      0.08328984305521      0.37995214338676
  C   -1.48526875393527      1.35290862379958      0.16463841370111
  H   1.98188393564062      0.56697938912520      1.30215616104060
  H   1.55072971173068      1.93541385235840      0.26634095303600
  H   2.73998414463309      0.75714137072116     -0.28421636368163
  H   0.51795958941783      0.37152820933211     -1.39045337379607
  H   1.55236019587691     -1.79167599281104     -1.24349785958816
  H   1.51389998295196     -1.77586609598445      0.53064215621973
  H   -2.03588582696366     -1.63709256635228      0.58174720702439
  H   -1.90523074862485     -0.98408998788424     -1.06335408491970
  H   -0.46970600808429     -0.03819382731172      1.45405402901665
  H   -1.69255537436112      1.50896752162474     -0.90003265476544
  H   -2.44686701558100      1.30448303215031      0.68609224268751
  H   -0.95959851654131      2.23770884279637      0.53659750321515
