25
Coordinates from ORCA-job orca
  C   0.66920177207846      1.42321859868921     -0.08911024830856
  C   0.05541232064290      0.04503685340134     -0.21645582857062
  C   1.05473027483303     -1.07669326494520     -0.41481531843870
  C   2.14128855012290     -1.10133415519707      0.64619494825085
  C   3.46825270225514     -1.66979994608169      0.38613803286370
  O   3.27852305213504     -0.25480745020658      0.45474338398396
  C   -1.27121194013241     -0.18618753010656     -0.16483132420043
  N   -1.90528519887235     -1.39797861591250     -0.51123396253811
  C   -2.32364835940822      0.88019548472904      0.14082546497448
  O   -1.97912500716145      1.78048146529923      1.15140641324258
  C   -2.65179209916764      1.61579552181554     -1.14753567263759
  O   -2.59781153810974      2.82275921416320     -1.21800017187167
  H   1.57583594107412      1.48292614538344     -0.69851972092493
  H   -0.00276356075783      2.21923501341613     -0.40747020853000
  H   0.96840155152487      1.64106451947830      0.94196205022981
  H   1.54634791573244     -0.98844818500172     -1.39344248966978
  H   0.56860655228948     -2.05868447818546     -0.38837274837338
  H   1.77496080283066     -1.11953355885537      1.67430244484081
  H   4.04400416170799     -2.10639925746661      1.20080406991528
  H   3.69758853205476     -2.06228874477969     -0.60419572408406
  H   -1.27943024599167     -2.14119743328284     -0.78397746361186
  H   -2.56857027973020     -1.72874939380077      0.18048931493974
  H   -3.24646578568369      0.33545528095456      0.41558755795496
  H   -2.08881770696660      2.66475664215678      0.76464505981487
  H   -2.92823240730000      0.98117727433529     -2.00999085925136
