17
Coordinates from ORCA-job orca
  C   -1.73231848462587      0.38947525625105     -0.97184992808714
  C   -0.77730576100519     -0.66033536261561     -0.44838903237654
  C   -0.54431883311488     -0.83823266288050      1.06061793950899
  O   -1.19975561475835      0.03763435138005      1.92682110613007
  C   0.52477631833352     -0.28144546898708      0.18733206379922
  N   1.08860479200235      1.06093698860071      0.34674584290201
  C   2.32266036420588      0.54530627041637     -0.15844576797248
  O   3.33961415448078      1.05722644731379     -0.52466296561094
  N   1.87430850449837     -0.78622361830610     -0.04776607061139
  H   -2.72408517641576     -0.04060741748876     -1.13841916498659
  H   -1.38424504358279      0.80848820400210     -1.92162044348506
  H   -1.84922168634732      1.20157571907795     -0.25011617920164
  H   -0.75566921953626     -1.59246781616346     -1.00936574421269
  H   -0.43686352655906     -1.85808623190258      1.42807277328859
  H   -0.52953698145888      0.58096163141317      2.35898533540340
  H   0.67150839937119      1.86453513338654     -0.10475153447247
  H   2.11184979451226     -1.48874142349763     -0.73318923001533
