20
Coordinates from ORCA-job orca
  C   -3.23099093306318     -0.10154261617020     -0.47087733368471
  C   -1.86217222964864     -0.78560463675287     -0.49457524534367
  C   -0.80252891255628     -0.03277618426901      0.31583970017885
  C   0.55309183939204     -0.73790053408082      0.28679669109273
  O   1.53358780825813     -0.10283585758250      1.10724372434257
  C   2.20594639676013      0.93172839733086      0.48704258930371
  C   3.52526432377586      0.70030233157079     -0.12158706791622
  O   3.35356839505799      1.34902325845783      1.15757535761542
  H   -3.61273271501020     -0.01527402989328      0.55183769026040
  H   -3.96700949489058     -0.66237988592859     -1.05470383438273
  H   -3.17595206125355      0.90946782000713     -0.88851795147164
  H   -1.95731234820904     -1.80816196693164     -0.10660082711402
  H   -1.52291377254490     -0.88821229096839     -1.53370190777899
  H   -0.70158091030631      0.98833256142331     -0.07261673691055
  H   -1.12218250439709      0.06268963879120      1.36035894402146
  H   0.92459098685585     -0.82415453769139     -0.74529355146099
  H   0.45460982165075     -1.75343400338640      0.68334719413785
  H   1.56250613566362      1.73296033802882      0.11217397624920
  H   3.89708379105083      1.33960361834929     -0.92045996528952
  H   3.94512738341457     -0.30183042030414     -0.06655544584915
