18
Coordinates from ORCA-job orca
  C   1.31333098281305     -1.63938078584945     -0.11313000825141
  C   1.07135518072572     -0.13918793624115      0.07206451398942
  C   -0.41176351406907      0.27698112403860      0.18112450858559
  C   -0.50904664981719      1.78711113485396      0.43533323313212
  C   -1.21212861109404     -0.10685595948378     -1.06446927161211
  O   -1.04524120400356     -0.43068366852742      1.25822320355383
  H   0.95823966995541     -1.99222547548590     -1.08540408767518
  H   0.79502673762046     -2.21238951692124      0.66036791347357
  H   2.38113021628855     -1.86930351966211     -0.05200635168525
  H   1.57772149847545      0.19817996864575      0.98738580077057
  H   1.53444888386469      0.42222458878275     -0.74877093030711
  H   -0.08887399561628      2.36078884994040     -0.39666672671711
  H   -1.55366605229273      2.08106343485924      0.56844382864350
  H   0.04184347640188      2.06389320680191      1.34183572133604
  H   -1.22913937910586     -1.19071972125402     -1.19515452495360
  H   -2.24596543137769      0.23463573198357     -0.96657317225438
  H   -0.77972638908991      0.34793038526662     -1.96046574083086
  H   -0.59754641967889     -0.19206384174775      2.07786409080239
