19
Coordinates from ORCA-job orca
  C   -3.13013078576829      0.52832648792281      0.15990612285247
  C   -1.89812758183298     -0.22676036307121     -0.34593560345162
  C   -0.58604223984210      0.34663619453021      0.19639466822198
  C   0.63573396717296     -0.40801068958059     -0.30378728281449
  O   1.79397022297790      0.19153255885328      0.24485936826741
  C   2.99041440007728     -0.43157197715306     -0.15852502075105
  O   4.07083805192121      0.22819945265296      0.40926731446140
  H   -4.05355639939074      0.10090122860464     -0.24175297828230
  H   -3.09588936332769      1.58272377307860     -0.13373711564213
  H   -3.19437268766650      0.49272754024543      1.25248004470260
  H   -1.88135306324928     -0.20502442370090     -1.44320675316094
  H   -1.97845813208919     -1.28499569054612     -0.06597213882209
  H   -0.48853079435567      1.40061171175027     -0.09017319279101
  H   -0.58773545899562      0.32150272692424      1.29239631927413
  H   0.67809949745143     -0.38687104700114     -1.40689612446846
  H   0.57906998425491     -1.46993332186126     -0.00906759408628
  H   3.03912780390503     -0.44294312057937     -1.26541410285228
  H   3.03380367649391     -1.47068882504879      0.20156139078001
  H   4.07313790226344      1.13363778397999      0.07930767856264
