13
Coordinates from ORCA-job orca
  O   -2.61311667138906     -0.01104880864046      0.70341547527277
  C   -2.52020312822901      0.33040598195534     -0.43712528603168
  O   -1.51227837497672     -0.02803106034999     -1.28694384455299
  C   -0.47742627864284     -0.76778435774514     -0.72776197954219
  N   0.52722855119334      0.16581055845292     -0.05100376705285
  O   0.23847491035148      1.34572523723975      0.05225916014303
  O   2.86408470187179      1.42398710488790      0.79895171999907
  C   2.62825265360102      0.25029194839729      0.92020232489546
  N   1.55405303699916     -0.48507901395377      0.36065638798436
  H   -3.22784087928492      0.95909858964415     -0.99266132971836
  H   -0.81094750969985     -1.45593099316168      0.04892211188094
  H   0.06270480964773     -1.27845319799521     -1.52146128745730
  H   3.28701317855789     -0.44899098873110      1.46443431417975
