14
Coordinates from ORCA-job orca
  C   -1.36929998143595     -0.09712334547974     -0.59199100057815
  C   -1.17612004846301     -0.84861213470824      0.69886988757451
  C   -0.52499473318149      0.50231598688777      0.49886782056266
  C   0.96060122539087      0.60897719550054      0.39975404296979
  C   1.77011745695938     -0.01290971224199     -0.65567480808294
  O   1.51926771341660      1.39153401478320     -0.66675770081199
  H   -0.87859316656993     -0.47244974408408     -1.48205061047172
  H   -2.33266473746169      0.36014030665524     -0.78642263229168
  H   -0.53045104573764     -1.72004748080598      0.68130472249029
  H   -2.00722466099199     -0.92531621797472      1.39072823564948
  H   -0.97770536547309      1.32629360676123      1.04445575616866
  H   1.45747974332994      0.77648072247521      1.35744798145608
  H   1.29400208842937     -0.58078103790385     -1.45261562139117
  H   2.79558651178863     -0.30850115986461     -0.43591807324382
