10
Coordinates from ORCA-job orca
  C   1.03829629928367     -0.34385838082128      0.28578968081846
  C   -0.31632818613239      0.04737623323253     -0.28141105023151
  O   -1.16756171780110     -1.04744166486353     -0.13771532604611
  O   -0.90204324883907      1.13384752016436      0.42716784675580
  H   1.44307634585918     -1.20379134375207     -0.25462027864214
  H   1.74394331207519      0.48730595230947      0.19892614608427
  H   0.92186373791812     -0.60525538729002      1.34030752143753
  H   -0.21817206064895      0.33293993037343     -1.34636187177317
  H   -2.05706876320886     -0.75129891529591     -0.36273951108615
  H   -0.48600671850578      1.95017505594300      0.13065684268301
