25
Coordinates from ORCA-job orca
  C   -2.09281036806939      2.36624953775534     -0.10258003185436
  O   -1.80599879001485      1.52218770101904      0.99166339892775
  C   -1.97105082278037      0.14273946008975      0.72627292809063
  C   -0.81562582032683     -0.50159258125798     -0.06040460892936
  C   -1.13935782690840     -1.98187491913784     -0.30099478578064
  C   0.51643884381159     -0.28751353901237      0.67621305876169
  C   1.75445176409911     -0.68228592299377     -0.13367453437254
  C   3.07875055223161     -0.40252848190595      0.60617575392775
  C   3.30745520325383      1.02017857619411      0.85642248409605
  N   3.47844879820340      2.14811629389223      1.04501773628463
  H   -2.01384222125869      3.39453413286592      0.25604973332339
  H   -1.38888506043800      2.23539008399510     -0.93658894331531
  H   -3.11269183617249      2.19839513887973     -0.48202871745344
  H   -2.05086473474474     -0.34067788138516      1.70771911236939
  H   -2.92138700824478     -0.03135318809448      0.19558756753523
  H   -0.75035253499432     -0.00472667769444     -1.03834559782826
  H   -1.20495329980379     -2.52772527439879      0.64761807561129
  H   -0.37966292036243     -2.47343212020587     -0.91437179815959
  H   -2.09788398820038     -2.09826168521746     -0.81711010698273
  H   0.58973497411462      0.76838370171028      0.95736446947874
  H   0.49941222493286     -0.85564618380921      1.61757245900630
  H   1.76281921006957     -0.14739248034359     -1.09015944774253
  H   1.73799214680014     -1.75091340747382     -0.37114258946457
  H   3.92602321437954     -0.78413066105864      0.02612551471833
  H   3.09383930042319     -0.92612062241211      1.56906286975216
