18
Coordinates from ORCA-job orca
  C   2.81125641089887      0.12808475728727     -0.55467628545370
  C   1.71341706726918     -0.24366207569919      0.44259251119050
  C   0.33456642110445      0.21434700322734     -0.01281728633948
  O   -0.60849439125772     -0.16175930838466      0.97068705466314
  C   -1.92692990569768      0.30330664940963      0.74231774341909
  C   -2.67145645215522     -0.46045619187458     -0.35143729480779
  H   2.87014474026489      1.21237605349208     -0.69932757024845
  H   2.63180159678380     -0.32654619126629     -1.53511883290783
  H   3.79129445494422     -0.21198156918799     -0.20845699803916
  H   1.68591041817426     -1.32904444436310      0.59176906653541
  H   1.91906685242890      0.20011738251116      1.42318827587279
  H   0.32104966902163      1.31008740735447     -0.15212095607053
  H   0.09657573289212     -0.23391186297392     -0.99112303614434
  H   -1.91637142241093      1.38214521269507      0.51531967998967
  H   -2.44708899343621      0.17718602169400      1.69762651350195
  H   -3.70722045414926     -0.11056704313235     -0.41369604421171
  H   -2.68213287659198     -1.53153893991719     -0.12952136979906
  H   -2.21538986808332     -0.31818586087174     -1.33520717115050
