25
Coordinates from ORCA-job orca
  C   4.00012106660323     -0.19706143992234     -0.09259604648692
  O   2.63351442344820     -0.41791412473251      0.16934173561060
  C   1.96261091759494      0.74919119563153      0.59205862795321
  O   0.62129262217481      0.47971987172609      0.77183268815569
  C   -0.10154231578350      0.23165320113825     -0.43196390063857
  C   -1.55097287391542     -0.13850812080668     -0.09395694083764
  C   -2.22067825969872      1.01085389413494      0.67781327133675
  C   -2.29087650746026     -0.37606801447405     -1.42093206421470
  C   -1.57215814827782     -1.42418888564486      0.75053567105442
  H   4.15109157905082      0.54597803742515     -0.89132997524893
  H   4.42777797386904     -1.14890856775775     -0.41163838668320
  H   4.53840483744542      0.14989466821701      0.80316392804118
  H   2.11761544872437      1.55257818218211     -0.15747511531958
  H   2.35338711731657      1.08842404431498      1.56340386042611
  H   0.37687131633906     -0.58198987095233     -0.99106064479964
  H   -0.07646417231814      1.13634530324683     -1.06202900610321
  H   -1.69132985309246      1.21831002455197      1.61091214816083
  H   -3.25850434584078      0.76031276497566      0.92075190060057
  H   -2.23000805119453      1.93165291554373      0.08405043258247
  H   -3.33382797094401     -0.65150308434405     -1.23536053600241
  H   -2.29169635097574      0.52276614007523     -2.04728984705757
  H   -1.82991846075444     -1.18681252649436     -1.99518780600008
  H   -1.11625241152880     -2.25871246035236      0.20690988718161
  H   -2.60065269639907     -1.70698627334239      0.99806145428768
  H   -1.01780288438275     -1.28902687433981      1.68198166400133
