10
Coordinates from ORCA-job orca
  F   -2.04150860600294     -1.13488825213286      0.03075289001533
  C   -1.21721287636478     -0.03532783760199      0.16683873751431
  C   0.22117689220988     -0.45887837145526      0.16265719917127
  C   1.28079948308139      0.47758592558991     -0.22646107629841
  O   0.86416477059221     -0.56415444660253     -1.10900576745976
  H   -1.46411029592714      0.46290899080383      1.11423463939802
  H   -1.40643820396616      0.65712151030872     -0.66217023905164
  H   0.46329680747304     -1.26005437179159      0.86193305642390
  H   1.02429069800638      1.48894833221033     -0.54052600936294
  H   2.27554133089813      0.36673752067143      0.20174556964992
