21
Coordinates from ORCA-job orca
  C   -2.18287702137999     -0.62017301745489      1.44030963604324
  C   -1.12541229912997     -0.54339069386085      0.31842783821627
  C   -0.84405452717114     -1.94467353805934     -0.26170869304648
  C   -1.63285556771201      0.33713381011967     -0.74806129183991
  N   -2.05298117937437      1.03153480166887     -1.57140692922296
  C   0.16320326081215      0.07748439605896      0.89003420944400
  O   1.14322239697022      0.11298822140520     -0.12823653055155
  C   2.30296062274387      0.77852095069528      0.23469368730194
  C   2.53355853856561      2.15885393496696     -0.21238295791269
  O   3.17498047159699      1.01273967192151     -0.81961893707936
  H   -3.11754953246197     -1.03432826593075      1.05601245625739
  H   -1.82315665879060     -1.27001870594816      2.24342235945452
  H   -2.39462022476346      0.36781400497136      1.85755622169184
  H   -1.75521357140622     -2.37421376487182     -0.68473558001617
  H   -0.48951418780799     -2.60361945673296      0.53707275548853
  H   -0.08031259175064     -1.89709852763272     -1.03858568498984
  H   -0.04478220751564      1.08976353069620      1.26512246770885
  H   0.50412875615587     -0.53643298993757      1.73892310324737
  H   2.75254310384867      0.40439010846231      1.16080958890064
  H   1.77254657303478      2.62870257788124     -0.83135068569547
  H   3.19618584553587      2.82402095158151      0.33782696659985
