20
Coordinates from ORCA-job orca
  C   -2.39829917376656     -1.11850409131903     -0.08072600026919
  C   -1.27534824622964     -0.12109738843801      0.22424067817275
  C   -1.61460411960650      1.28427634492885     -0.28329666918597
  C   0.04117628054241     -0.62221142465912     -0.36397025547171
  O   1.09249752857660      0.23526674229204      0.04601683808312
  C   2.34852176685277     -0.12640461046232     -0.45813703665075
  C   3.37833081150347      0.85668791538626      0.06975157591426
  O   4.55277430137872      0.79515861785231     -0.18553799012408
  H   -2.55908293737370     -1.21461022664998     -1.16124082551417
  H   -3.34291552897735     -0.78925269428435      0.36279304849518
  H   -2.17363913377641     -2.11502947111264      0.31435444172088
  H   -1.13574634348399     -0.07297963857278      1.31264029448817
  H   -1.78791985715106      1.27597136096721     -1.36652679379143
  H   -2.52331328969723      1.66398629440998      0.19459454727381
  H   -0.80005600035584      1.98302031545418     -0.07746750878095
  H   -0.01636844117087     -0.64907464483424     -1.46669316468135
  H   0.24676725070251     -1.65187952650582     -0.02653564593694
  H   2.37835149877821     -0.10880327347483     -1.56172468975554
  H   2.64560992837866     -1.14468755378562     -0.15138658045851
  H   2.94326170487578      1.64016595280791      0.72833373647242
