20
Coordinates from ORCA-job orca
  C   3.09106087592801      0.11732655547179      0.32917728669878
  C   1.81114372829821     -0.29273170862962     -0.37939453547841
  O   0.71395764620867      0.14202102896895      0.40331907034146
  C   -0.56650337345849     -0.11592078756374     -0.15646183547408
  C   -1.02977481213667     -1.54885975802544      0.13040343731420
  C   -1.51097589220028      0.89064098651016      0.45421791382484
  C   -2.71813146611014      1.33815876691151     -0.24711619269563
  O   -1.57001358968714      2.18219481805284     -0.14857275706874
  H   3.14919214117862     -0.34833238885348      1.31661740488769
  H   3.12407271942003      1.20211873557623      0.45898899119011
  H   3.96397291855531     -0.19225646373842     -0.25286458605633
  H   1.76109796828762      0.16348783084382     -1.38139667809736
  H   1.78910197438661     -1.38483866073964     -0.52007046787717
  H   -0.53973662558673      0.06175914673142     -1.24295702266206
  H   -0.33234858871238     -2.27952451534804     -0.28653945995703
  H   -2.01395008148526     -1.73521606970011     -0.30948804157144
  H   -1.09211932542417     -1.71764171355376      1.20954536368718
  H   -1.50579650036980      0.90303339391700      1.54521935520671
  H   -3.58987423985114      1.65523127920695      0.32308529093024
  H   -2.93437547724086      0.95934852396159     -1.24571253714293
