19
Coordinates from ORCA-job orca
  C   -2.42584253509423     -0.74250691080370     -0.22907971604590
  C   -1.52037131440217      0.44708730820116     -0.56413793751774
  C   -0.25420241606554      0.47144000183956      0.26632034069967
  C   0.97209770003037     -0.33517039274186     -0.12261763317444
  C   1.79144462844929     -1.06452687579104      0.91847299924859
  C   0.98086859638851      1.17883243665711     -0.19766139423369
  O   1.67044481234898      1.92586516144248      0.76840360880008
  H   -2.73401244404233     -0.71959085740338      0.82151552463631
  H   -3.33294132690130     -0.73832582067560     -0.84127464044951
  H   -1.90899035456897     -1.69225779699070     -0.40036086196135
  H   -1.25672564285540      0.41929084637616     -1.62889124725654
  H   -2.07088754530908      1.38463202638889     -0.41296561294902
  H   -0.41401331450071      0.54851810159338      1.34062783705895
  H   0.91075518899425     -0.83722014102232     -1.08688073258338
  H   2.80187272356099     -1.27747329043087      0.54991343660286
  H   1.33153918877391     -2.02100773121870      1.18762904558090
  H   1.88898076474067     -0.46768487030552      1.82899455944040
  H   0.95919331298919      1.63051051721650     -1.19040895108642
  H   2.61078997746357      1.88958628766843      0.56095237519024
