21
Coordinates from ORCA-job orca
  C   -1.31538242382038     -0.72994223078907      0.99328066503081
  C   -0.97302845966824      0.55209868145194      0.22650429331981
  C   -2.20447030796614      1.11938262639860     -0.48893208519354
  C   0.15912963526572      0.34700235657295     -0.79638233773990
  N   1.42236913188788     -0.12155858168719     -0.22420384464926
  C   1.83479150170094     -1.49675521489337     -0.42677679936027
  C   2.24604096248962      0.78453207817823      0.37010621353298
  O   1.99372949846676      1.96614087165459      0.51354868268780
  H   -0.45194986914954     -1.10981350140672      1.54715711590792
  H   -1.66121229963837     -1.51947015241142      0.31475581770413
  H   -2.11435597255397     -0.54678587930754      1.71831324864425
  H   -0.61562790968158      1.30137633357824      0.94171231316477
  H   -2.59227915839626      0.41283672376678     -1.23281742858476
  H   -3.01006060529898      1.32356500068917      0.22248152514081
  H   -1.97100520400204      2.05522226176932     -1.00626198085531
  H   -0.14938109970175     -0.37920428606036     -1.55723367747738
  H   0.35396533837930      1.30062795898318     -1.29688473366095
  H   1.11779725518946     -2.19873079146808      0.01083997193826
  H   2.80499391395672     -1.65801790832491      0.04891067854654
  H   1.93297427392869     -1.72898955070846     -1.49453203765356
  H   3.19296279861218      0.32648220401409      0.71926739955685
