18
Coordinates from ORCA-job orca
  C   2.36727203905449     -0.19602180215714     -0.94334482497855
  O   1.34608026390326      0.77812123933696     -0.91243270088282
  C   0.46849018147678      0.64227258161607      0.17576773748327
  O   -0.15877264326701      1.90820114670160      0.34225195503580
  C   -1.46281599381982      1.77666805437434     -0.06735276256576
  C   -1.83692219588497      0.53152407465488     -0.34344667442274
  C   -0.67208944972024     -0.39115435193198     -0.07261408550688
  C   -0.90589832189111     -1.33669802439075      1.11424442565593
  H   2.94500444112025     -0.20562522817091     -0.00646658738780
  H   1.97692483756678     -1.20932819369733     -1.11840049306858
  H   3.03409938104837      0.06516122054051     -1.76649653285903
  H   1.04333985402134      0.42913368477056      1.08986796818872
  H   -2.01417179440941      2.70596520198908     -0.10054509961789
  H   -2.81338116651411      0.21747843404756     -0.68110880319232
  H   -0.41322597595904     -0.98208947590648     -0.95937835009588
  H   -1.13230453943740     -0.77144575996198      2.02349745187645
  H   -0.02281122537895     -1.95600232650025      1.30621853722601
  H   -1.74881769190922     -2.00615947531474      0.91974083911208
