21
Coordinates from ORCA-job orca
  C   2.65053863828010      0.16083784324674      0.47749190449009
  C   2.47552578363870     -0.91124126989304     -0.59810976799004
  C   1.37738089360072     -1.94151103860254     -0.25923761109264
  C   0.03875643207735     -1.36380794276035     -0.17815833757724
  C   -1.06054583976807     -0.87376973310182     -0.11350333008296
  C   -2.38232793155722     -0.26056708052856     -0.02793432911360
  C   -2.33531507760910      1.11088144203888      0.62388051743434
  C   -2.23271267123146      2.33775671738431     -0.16778864101669
  O   -3.47662776207660      1.94009141695120      0.42285279147661
  H   3.43050004984900      0.87602545497226      0.19976024447481
  H   1.72065957653301      0.71640668109361      0.63121984463396
  H   2.93442090239828     -0.28552292951002      1.43699414076866
  H   3.41716054023683     -1.45403189961223     -0.74148568835306
  H   2.23510821568834     -0.44231287448704     -1.55867230259547
  H   1.62076502137472     -2.43015997229573      0.69386416037105
  H   1.38046376567996     -2.73636197054100     -1.01556598849971
  H   -2.83102908878384     -0.16007402655586     -1.02356748831130
  H   -3.05758002557300     -0.90364283428822      0.55150005539151
  H   -1.94072659165404      1.11980876931552      1.64073953470307
  H   -2.19037556388178      2.27337856549445     -1.25437827498581
  H   -1.77403726722190      3.22781768167944      0.26009756587441
