14
Coordinates from ORCA-job orca
  C   -1.96294399348729      0.01576140630350      0.27292655108801
  C   -0.48202549828661     -0.01390656282643      0.65587159474164
  C   0.42467780632764     -0.31671687242257     -0.53404765674627
  N   1.83344963023954     -0.36579376479915     -0.14150759024789
  O   2.27690779060011      0.99649609311274      0.05069827398810
  H   -2.59227495535427      0.24283908153295      1.13811675422561
  H   -2.29113622778386     -0.94847733582258     -0.13055780926205
  H   -2.16300999479501      0.77616903494147     -0.48939660635576
  H   -0.30351505822412     -0.76552440398280      1.43357719618695
  H   -0.18398718282389      0.95214808318012      1.07715467119365
  H   0.19209396639286     -1.30666188806122     -0.94863333709740
  H   0.25393078188728      0.42420333692243     -1.33174671117339
  H   2.37642949945191     -0.67100551786750     -0.94688619925774
  H   2.62140343585570      0.98046830978903      0.94984086871655
