10
Coordinates from ORCA-job orca
  C   -1.32316620408789     -0.13161006243085      0.25456883143004
  C   0.19187953892600     -0.05502676065384      0.35567156290944
  O   0.68188151107297     -0.06537943789943     -0.97873130651017
  O   2.12546483589989     -0.07136189422631     -0.90077202243034
  H   -1.72175100757284      0.72468093124711     -0.29590450467788
  H   -1.76053898374783     -0.13231286193306      1.25656327058112
  H   -1.63023954256389     -1.04629611230918     -0.25875235933645
  H   0.51336372333534      0.86327101887321      0.86810618118090
  H   0.60071615392277     -0.91169575540506      0.90615484095116
  H   2.32239097481550      0.82572993473742     -1.20690349409782
