24
Coordinates from ORCA-job orca
  C   -0.70243239773641      1.76251108609766      0.29837824651886
  C   0.02252570997169      0.50810557521020     -0.20508022108197
  C   -0.88221710431976     -0.73973093118338     -0.22560913826839
  C   -2.14767055105752     -0.60469299147581     -1.08216984430257
  C   -3.38327647906738     -0.11681693274352     -0.36064223268085
  O   -3.47313479994714      0.06876599880825      0.82787741512347
  C   1.29190224507416      0.26937159908849      0.63843548167769
  C   2.18756723626028     -0.83259732900879      0.12590283188806
  C   3.64672224262539     -0.68761179459780      0.06512518111223
  O   2.85289927312551     -0.58051002511273     -1.11979330631048
  H   -1.54895975342066      2.03099398528006     -0.33995316140432
  H   -1.09207453329639      1.61485845839537      1.31039503317490
  H   -0.02278967467852      2.62062361964955      0.31366839031073
  H   0.35646610967409      0.69500693724663     -1.23545066403082
  H   -0.30325500231244     -1.58587109711888     -0.60683164812036
  H   -1.17987600913166     -0.99250615151103      0.79918505953682
  H   -1.98896450660844      0.04206627336225     -1.95668458893447
  H   -2.43723294927577     -1.57503681606942     -1.51393468137365
  H   -4.26270330491645      0.04191281589128     -1.02647801425821
  H   1.87244350798113      1.19846559115106      0.66717942049926
  H   1.00673385258759      0.04123817466213      1.67485121124084
  H   1.80018130297651     -1.84850651669478      0.21254813903187
  H   4.28237213389123     -1.57019601123815      0.12151593977749
  H   4.10477445160099      0.24015548191137      0.40562515087385
