18
Coordinates from ORCA-job orca
  C   -0.51176677624966      1.49095523308818      0.07707148129588
  C   -0.13551586432894      0.01086652210413     -0.09734356129170
  C   -0.75446745657933     -0.54398833172362     -1.38982960375159
  C   -0.63947014308581     -0.80120686618158      1.10760985291765
  C   1.39838978678996     -0.11912754067506     -0.21197019619932
  O   2.11269710615612      0.38240581367889      0.90839954972551
  H   0.00655245370117      1.92017127071342      0.93868970063563
  H   -0.23303913724866      2.07440423473111     -0.80715957927036
  H   -1.58994562822797      1.60766623634975      0.22806760879804
  H   -0.51035944906908     -1.60316288664701     -1.52817939126716
  H   -0.39283570846070      0.00159561736867     -2.26831267486221
  H   -1.84550602974696     -0.45520437169509     -1.37172226762612
  H   -0.22150438687308     -0.42334692667823      2.04711859473069
  H   -1.72899560635953     -0.73897118876096      1.19254240908636
  H   -0.37340179835648     -1.86068013616019      1.01505405391214
  H   1.66336572177689     -1.17065756155485     -0.40588339601813
  H   1.74696891124056      0.46624830965930     -1.07009549693990
  H   2.00883700492150     -0.23796842761685      1.63594391612460
