24
Coordinates from ORCA-job orca
  C   2.03584514105817     -0.40054833413993      0.26718575777781
  C   1.79752915476412      1.11444384598894      0.39486536076819
  C   0.64368235591397      1.69131366549644     -0.43054739177010
  O   -0.60108508173979      1.50996711091234      0.23146099939409
  C   -1.63657201475140      0.99621175532857     -0.54253096510872
  C   -2.67654662930949      0.20207170476573      0.18540046337558
  C   -1.77046273739497     -0.49056326060865     -0.80982803687127
  C   -0.75045962630303     -1.51779733660811     -0.36287902960465
  O   -0.24787280712444     -1.19952080791359      0.92193212770462
  C   1.14776403522894     -1.32791314306680      1.10857773620357
  H   3.06615016207382     -0.62346664273788      0.57382043487819
  H   1.98455842171645     -0.68405781644803     -0.79162677327604
  H   2.71147650398615      1.62883858794423      0.07217407574904
  H   1.64019462567180      1.39395804585591      1.44360660332738
  H   0.80371304124619      2.77031240380680     -0.57030167909271
  H   0.62156707643090      1.23460684024848     -1.42957340819036
  H   -1.97532728265672      1.66185099009106     -1.33964549914763
  H   -2.46147502720633      0.01775280761579      1.23165762544002
  H   -3.72342896280141      0.34765820981686     -0.05704248316251
  H   -2.21855000286274     -0.74833973179635     -1.76779019381149
  H   0.05790426974106     -1.57883291756419     -1.10346338162914
  H   -1.22261083870851     -2.51307470808686     -0.33233424326220
  H   1.30575325060929     -1.11544008222043      2.17124403111223
  H   1.46825397241797     -2.36943118668033      0.93563686919609
