13
Coordinates from ORCA-job orca
  C   2.01990743660165     -0.03613275541374      0.38476809540080
  O   0.66385321783290     -0.32264427472775      0.62976611968156
  C   -0.16542549763192     -0.04525732741652     -0.47225862132107
  C   -1.61281529816605     -0.33969584867582     -0.10932524086647
  O   -2.14308512622095      0.52034997384973      0.88152188378747
  H   2.57709858067116     -0.27939663094893      1.29166149487111
  H   2.42130688491601     -0.63407034538797     -0.44880096859816
  H   2.17607795200678      1.02823752591514      0.14834229339828
  H   -0.06375058019525      1.01277045821566     -0.77940614578613
  H   0.12049113743899     -0.65907894064902     -1.34538762538846
  H   -2.21262696595148     -0.31753615978848     -1.03370707955514
  H   -1.67557215142335     -1.35064234041906      0.30378150326936
  H   -2.10545958987849      1.42309566544676      0.54904429110686
