13
Coordinates from ORCA-job orca
  C   1.33618703311194     -0.70308569750931     -0.16134229886684
  C   0.34687195401699      0.44077682132549     -0.34521198787221
  O   0.73818108718263      1.46829820255459      0.55538753664526
  C   -1.10332852623667      0.00800950156638     -0.12976453005411
  O   -1.24817617376714     -0.54116013017531      1.16704647429098
  H   1.14397261432421     -1.50069800805145     -0.88501240439579
  H   1.25100841561290     -1.11286825360458      0.84673402493749
  H   2.35551634532874     -0.33865078866031     -0.30871775139531
  H   0.40595229852467      0.80264053230287     -1.38726845224675
  H   0.05846939435381      2.15017760168205      0.55704476062608
  H   -1.75954254304274      0.88570135559106     -0.26764198108929
  H   -1.36982790085700     -0.71833216741251     -0.91455211712306
  H   -2.15528499855233     -0.84080896960896      1.27329972654354
