16
Coordinates from ORCA-job orca
  C   -1.86455439703905      0.28587119635098      0.37802124836060
  C   -0.34237867151743      0.24056634183877      0.46379483569332
  C   0.29906793960972     -1.09960167277864      0.06615929354296
  C   1.73818028035116     -0.69227217802707     -0.26835879955950
  O   1.69381988213173      0.68099925236134     -0.67027844606673
  C   0.37704237971307      1.19340208542474     -0.49842576948778
  H   -2.25011771031192      1.27958503154572      0.62894415286391
  H   -2.20796633062335      0.04118944148962     -0.63332493033913
  H   -2.32452769514761     -0.42797684556718      1.06832142436903
  H   -0.02974854067322      0.48530034845945      1.48720721667896
  H   0.24612116466595     -1.85507637530019      0.85443309038877
  H   -0.20572373342635     -1.50543620615103     -0.81830396070145
  H   2.39606417657525     -0.78447303887242      0.60705148215396
  H   2.17366310542262     -1.28872694657362     -1.07837285909900
  H   -0.14955630931507      1.22796972698862     -1.46701459914835
  H   0.45061345958451      2.21867883881091     -0.11985237964958
