25
Coordinates from ORCA-job orca
  C   -3.93293003356822      0.05551522349281      0.33080728499232
  C   -2.53963541016636     -0.04701403928417     -0.29455290763857
  C   -1.43435013086295     -0.26067722237899      0.74686028783163
  C   -0.02715910543031     -0.44691406697880      0.16150011833469
  C   0.55060797744929      0.80595399835825     -0.50979447948785
  C   1.96336607663547      0.61660126682536     -1.08323795460751
  C   3.01673151529151      0.38612512840056     -0.02542745696785
  C   3.53419308207363     -0.94474662303854      0.31681065017654
  O   4.30355283806856     -0.04255793531064     -0.48157293055579
  H   -4.18801331752369     -0.85621527793128      0.88195778544928
  H   -3.99036726484069      0.89163447916552      1.03623028280935
  H   -4.70415800591723      0.21059171758183     -0.42981927212046
  H   -2.33829634513536      0.86068152070480     -0.87541746649946
  H   -2.52041749256478     -0.87672595589213     -1.01372101832635
  H   -1.42754172940152      0.58597710509237      1.44773654237164
  H   -1.68617940847586     -1.14326194363886      1.34905817962662
  H   0.64861562431953     -0.76930307751953      0.96220218227301
  H   -0.04444189344963     -1.26982714770995     -0.56682731712384
  H   0.56166575140308      1.63140851768857      0.21586094190533
  H   -0.10805296175371      1.13173065374578     -1.32188709299190
  H   1.98319058974039     -0.22298059654331     -1.78857905326172
  H   2.24384610689979      1.50940448890927     -1.65549727792975
  H   3.06104516318176      1.15216235416399      0.75316872128982
  H   3.14863482095431     -1.81910613302455     -0.20660791620883
  H   3.92609255307298     -1.13845643487834      1.31468216665963
