16
Coordinates from ORCA-job orca
  N   1.25760754570283      0.58329296625030      0.25957707229490
  O   2.44666380634691      1.00518590923470     -0.35988140341085
  C   1.29416755813134     -0.74417130236196      0.91047820936624
  N   0.03177671861097     -1.15171360470969      0.24148709722944
  O   -1.05753531453502     -0.75135035490147      1.13325670131480
  C   -1.98289836764945     -0.09042466613876      0.28842667437755
  C   -1.13381122494047      0.80532824640301     -0.63727622326742
  C   0.19727505904613      0.05735955454008     -0.63910563330457
  H   2.76540105529981      0.26745656226332     -0.91212790615501
  H   2.12343539933608     -1.37243000110554      0.55301112043150
  H   1.25641342653607     -0.74379020299892      2.00144154841782
  H   -2.56136946267307     -0.81778697475532     -0.29991230046190
  H   -2.66231171271687      0.46442735695582      0.93868983066081
  H   -0.98312142574294      1.79946408311657     -0.21292356051880
  H   -1.56920787192357      0.90630370468688     -1.63360294987480
  H   0.57751481117125     -0.21715127647901     -1.63153827709970
