14
Coordinates from ORCA-job orca
  C   -1.14337133925681     -0.54077298091721     -0.73415066381891
  C   -0.08736246260009     -0.21413736505491      0.32950610133815
  C   1.31437682332860     -0.62583869712107     -0.13790856427149
  C   -0.12837067506389      1.27092107332710      0.71122922649472
  H   -0.95222583299024      0.01797595592950     -1.65764485431511
  H   -1.14121366670943     -1.60635018169436     -0.98453733697834
  H   -2.14935840020826     -0.27983471275526     -0.39061737447858
  H   -0.32598340846159     -0.79815195533719      1.22894323243607
  H   1.60383220785089     -0.07122265201847     -1.03804815752742
  H   2.06619478841867     -0.42466703040229      0.63182235912535
  H   1.35766505170907     -1.69301409994730     -0.37747220754537
  H   -1.11725928959595      1.56088699983837      1.08022934976284
  H   0.10150989136164      1.90234975469721     -0.15484857649880
  H   0.60156431221739      1.50185489145586      1.49349746627690
