10
Coordinates from ORCA-job orca
  C   1.25072464310572     -0.12468837362330     -0.05121014951106
  C   -0.12196521868672      0.46932225833105     -0.22718309948078
  C   -1.34301798111071     -0.25165606116369      0.14592530797093
  O   -0.83855484494934      0.80699665052615      0.96368317873489
  H   1.98729279683601      0.65492048664260      0.16687362368364
  H   1.25651971198164     -0.84133756351919      0.77430168743958
  H   1.56578971788509     -0.63950737230775     -0.96521964238459
  H   -0.20879627899103      1.22030325855514     -1.01509664975747
  H   -1.26695868414450     -1.25022171721580      0.57585630267292
  H   -2.28103386192617     -0.04413156622522     -0.36793055936807
