24
Coordinates from ORCA-job orca
  C   3.48353792333682      1.33237384242510     -0.20068733775783
  C   2.58228841671206      0.19339194312050     -0.68150072456295
  C   1.09076077856251      0.48179979416668     -0.48963545962787
  C   0.18420493251355     -0.65500837394147     -0.97483865407733
  C   -1.29101628614097     -0.36771657080971     -0.79127027561255
  C   -2.28841182457545     -1.49741582293103     -0.70418217044699
  C   -1.98331160735026     -0.66218949127938      0.51589369237729
  C   -3.02496600119258      0.28091751325316      1.07484435955761
  H   4.54222273961262      1.09733448756530     -0.34847338827912
  H   3.33387037514746      1.53301322880666      0.86586674760430
  H   3.27159109128731      2.26122153392012     -0.74158654536065
  H   2.77838769043695     -0.00766629684036     -1.74296928232405
  H   2.84364166446069     -0.73082190771896     -0.14921458681753
  H   0.82846599026113      1.40694506797967     -1.02159784357696
  H   0.88884224754420      0.67953084349820      0.57158509791034
  H   0.43912842287416     -1.57923605549991     -0.43802038413656
  H   0.39098466853387     -0.85762670884551     -2.03496226292598
  H   -1.63616394551628      0.52695274611634     -1.30813931675822
  H   -3.25804923779262     -1.36932034100473     -1.17559314167072
  H   -1.90672710643939     -2.51290436450835     -0.74724973261415
  H   -1.36521568349156     -1.14409928131801      1.27173741104096
  H   -3.60737235043930      0.74040248315742      0.26870722857029
  H   -3.72916303020370     -0.24074925249554      1.73263186746724
  H   -2.56752986814123      1.09087198318380      1.65395870202143
