19
Coordinates from ORCA-job orca
  C   -1.52269370075202      1.29886153795763      0.65242558718827
  C   -0.73324890277186     -0.00324696954455      0.44209281213596
  C   -1.67274240011913     -1.17484401715165      0.13201846609381
  C   0.27846033513902      0.18890685133656     -0.67847655204123
  C   1.60434464023017      0.76216417900142     -0.57692723237884
  C   2.63232990794384     -0.14435049705782     -0.13217433794507
  C   1.39520038992978     -1.02596274965696     -0.79261267636292
  H   -2.09326729103607      1.56323211686971     -0.24473842356296
  H   -2.23373075161024      1.19170945579858      1.47741769938258
  H   -0.85330857756234      2.13203054638832      0.88498384071291
  H   -0.18427314306325     -0.22166253152250      1.36643978609816
  H   -2.38591203192337     -1.32812360320533      0.94732962127493
  H   -2.24608960372005     -0.97944203291721     -0.78111197393406
  H   -1.11641008650319     -2.10384585417684     -0.01786808072145
  H   -0.21289583632253      0.53157001417708     -1.59128491491819
  H   1.89311408080362      1.20087898614067     -1.53495929181130
  H   2.76051164494850     -0.45097228530206      0.90036237125983
  H   3.57857479452991     -0.01391754391302     -0.65138978057195
  H   1.11203753185921     -1.42298660322203      0.19847308010154
