16
Coordinates from ORCA-job orca
  C   -2.49842270430170     -0.68569882219839     -0.03574285710081
  C   -1.25110975981519      0.04689550145738     -0.49553928085453
  O   -0.11707414697609     -0.63654399143060      0.01809215709920
  C   1.09162077652519     -0.05400423630006     -0.35673379066255
  C   2.25272804543841     -0.28417932606030      0.55154603918877
  C   1.63720464575602      1.09796533491303      0.45005107190946
  H   -2.49187949300815     -1.71809944032748     -0.39591478719607
  H   -3.39517797385256     -0.18956356686234     -0.41864920414056
  H   -2.55176273543126     -0.70479803367066      1.05630792861073
  H   -1.25374916164584      1.09015306674746     -0.14346232630524
  H   -1.20246523407075      0.07912010371468     -1.59643027247992
  H   1.26920526420673     -0.04850078547885     -1.43395927608701
  H   3.22835153991082     -0.45779528226332      0.11119805538815
  H   2.05500347530880     -0.85021935715169      1.45484769409797
  H   2.18742511844885      1.88313461850213     -0.05725455713117
  H   1.04010234350673      1.43213421640904      1.29164240566358
