22
Coordinates from ORCA-job orca
  C   2.40475685534046     -0.03397752295891     -0.06347279171444
  C   1.13467749414271     -0.79551660183885     -0.45888421394918
  C   -0.20716274560598     -0.28782177024584      0.13527459109469
  C   -1.32966106122397     -1.19340929487970     -0.39777001929806
  C   -0.19175730893618     -0.33678792568647      1.67347594955527
  C   -0.41583797979590      1.16488758715169     -0.28427715092410
  C   -1.68847043862989      1.75025538440945     -0.72554992460910
  O   -0.65707646264189      1.43830526449589     -1.66934878666299
  H   2.57848332189566     -0.05233161888161      1.01649453791291
  H   3.27841613269337     -0.48860377767110     -0.53992339037158
  H   2.37241640156603      1.01172018599373     -0.38201659859072
  H   1.03827574385852     -0.78308859772337     -1.55068616029725
  H   1.24756805942851     -1.84868161105815     -0.17289594214927
  H   -1.09108290847281     -2.24338287675434     -0.20293597010720
  H   -1.45238672726516     -1.06977958864145     -1.47751938368474
  H   -2.28699444600136     -0.98000805587645      0.08672561141845
  H   0.57193882742069      0.32080064939087      2.09879611191256
  H   0.01004542602324     -1.35355043161640      2.02585298557879
  H   -1.15871439316413     -0.02686089325475      2.08281575102601
  H   0.29331597829912      1.85906845983512      0.17057185102460
  H   -2.58221873769526      1.13563664477049     -0.79459628915101
  H   -1.86852903123579      2.81312739104013     -0.57013176801364
