22
Coordinates from ORCA-job orca
  C   -3.62287321234986     -0.08608774602446      0.06731506769897
  C   -2.12551954010743     -0.39697826846806      0.01044509825719
  C   -1.41616107506694      0.43045811642586     -1.06386500396997
  O   -0.04358589495945      0.11716965628518     -1.22257942108722
  C   0.80748456495244      0.64273274536541     -0.22647250812577
  C   2.24013536919324      0.31628643932810     -0.64641381887134
  O   3.19807369053063      0.83139113180280      0.25619519859600
  C   3.43729456774087      0.01554352344943      1.38193410135002
  H   -3.80303470895561      0.96638810532053      0.31171359328520
  H   -4.12679037681249     -0.69139142333551      0.82592905502369
  H   -4.10832629333785     -0.28862129916552     -0.89356941223183
  H   -1.67378198198393     -0.20516497313002      0.99027160798115
  H   -1.96375157814881     -1.45893193197848     -0.20736188295789
  H   -1.53985523270792      1.50675278840674     -0.85753677735039
  H   -1.87641448781605      0.23198126316171     -2.03844218407277
  H   0.59090045609369      0.21222952011704      0.76264844927065
  H   0.68874942309205      1.73511504345597     -0.14153329533732
  H   2.34698393572904     -0.77226890706726     -0.76749435395377
  H   2.43613592652295      0.77927663747300     -1.61836506631164
  H   2.55049222693086     -0.10178651953349      2.02152901914174
  H   3.78112744903710     -0.98804940188481      1.08741116493383
  H   4.22271877242345      0.49772849999583      1.96824236873148
