25
Coordinates from ORCA-job orca
  C   0.24457214234088     -1.73062838755977      0.78190316315528
  C   -0.02749996161977     -0.72710095903531     -0.33969573903780
  C   1.10317665475277      0.30911440291231     -0.51802657415795
  C   2.38791168377869     -0.29997306700632     -1.02275012559424
  C   3.70560473191724      0.25069198829771     -0.68739309002613
  O   3.23389338548503     -0.94456807522924     -0.06103170598521
  N   -1.33562144400060     -0.08115437264123     -0.16569406356283
  C   -1.61165164450022      0.71934575601280      1.01722470508636
  C   -3.11745794160516      0.86291838459472      1.02790352505345
  N   -3.75152379153439      1.09101815902297     -0.05917983549097
  C   -2.98768440977439      1.02994635338338     -1.22374331419217
  N   -1.86558655857772      0.39120784382805     -1.32596502415556
  H   0.41748621068728     -1.23612337356272      1.74257505927818
  H   1.14451879173158     -2.30642969898288      0.55858093541256
  H   -0.59808833116764     -2.41825869407522      0.89104946206010
  H   -0.12910058847131     -1.27753627651334     -1.28028802068509
  H   1.30268536282918      0.82526530804384      0.42812832108447
  H   0.76383380979015      1.05728829303205     -1.24443445469249
  H   2.30200109622389     -0.84864208543431     -1.96309448855249
  H   3.77077089213810      1.12250116731035     -0.03769815606141
  H   4.53907308040259      0.11887209238994     -1.37550118942006
  H   -1.24821589651660      0.20976797437124      1.90994392399652
  H   -1.13029605606196      1.71743257398116      0.96984227917846
  H   -3.67437963861274      0.76240548094563      1.95870658547902
  H   -3.43842157963489      1.40263921191420     -2.13521217817000
