19
Coordinates from ORCA-job orca
  C   3.13531622479646     -0.53839834450208      0.72869677456839
  O   1.93602324691340      0.19528110546852      0.88574976564795
  N   0.82648566023834     -0.64945620378041      0.52043464162790
  C   0.02122730794479      0.08432362807744     -0.47680770941684
  C   -1.22377014922887     -0.76157878138940     -0.86881360490626
  C   -2.47484595749168      0.06164867527676     -0.45685788165971
  C   -1.90061996937722      1.35929791318643      0.05219837505288
  C   -0.56930807681148      1.38240893706741      0.02419590691646
  H   3.16990879462813     -1.40998740287656      1.39541536961416
  H   3.26986343560850     -0.88403727470342     -0.30414413652391
  H   3.94385689257156      0.14982436616185      0.99118325020648
  H   0.28016077032012     -0.69108316410308      1.38337668205321
  H   0.69151787385701      0.24338740801539     -1.32809647158331
  H   -1.18634615675738     -1.73569834555303     -0.37360638667483
  H   -1.22134881864132     -0.95965840803677     -1.94263010603559
  H   -3.07163253295135     -0.44066733933223      0.31551504220865
  H   -3.15526265431634      0.22110953133024     -1.30184746971675
  H   -2.52932524085980      2.17003468916245      0.40631545152778
  H   0.05809934955713      2.20324801053048      0.34972350709333
