22
Coordinates from ORCA-job orca
  C   3.97326828856819      1.29940530863487     -1.43118068835364
  C   3.03974348513224      0.91878635770824     -0.77582976040706
  C   1.90114644670181      0.44706362458131      0.00022914323652
  C   0.95730027551299     -0.46698253488453     -0.80860679729162
  C   -0.19213631225195     -1.05634609076002      0.02071755309784
  C   -1.19540077670054     -0.05396555508836      0.62244833753479
  C   -2.22293869614727     -0.79380001454345      1.48900232890302
  C   -1.89884661738857      0.78569575315583     -0.45211155295081
  H   4.79869349335097      1.63634453526102     -2.01009255898386
  H   2.26327529748400     -0.09499502031836      0.88392110275747
  H   1.34979404442965      1.31354511200502      0.38413864176213
  H   0.56927481068678      0.09427202645959     -1.66457703431901
  H   1.54982252143648     -1.28609485437107     -1.22893803457941
  H   0.23348662620497     -1.65700569475102      0.83571631742289
  H   -0.74714164121236     -1.76133999914287     -0.61273132050122
  H   -0.64578721344577      0.63183058970779      1.28154126577390
  H   -1.73603737597155     -1.37607466312964      2.27791124483925
  H   -2.91616108517096     -0.09483144880987      1.96752870952489
  H   -2.81821432724452     -1.48805991911035      0.88430877168154
  H   -1.19904390157116      1.40802390202240     -1.01681519860538
  H   -2.64132770080813      1.45278194260632     -0.00303408320117
  H   -2.42276764159530      0.14174764276716     -1.16847038734106
