16
Coordinates from ORCA-job orca
  C   -2.14755861127975      0.19943477016970      0.25415119233400
  C   -1.07703228686524     -0.34689361923184     -0.69633119149173
  C   0.26012796054055      0.34207376810242     -0.52641901940680
  C   1.55408720681907     -0.31359255651140     -0.96631534593684
  C   1.24750310172471     -0.11888592927762      0.49876693094559
  O   1.91702229538549      0.87763221078543      1.21935011429284
  H   -3.10554329537860     -0.30952479583739      0.10959791424612
  H   -2.31088267535017      1.26958990715248      0.08985798443771
  H   -1.85021738426098      0.06853444845624      1.29926070171638
  H   -0.95432506446383     -1.42542947434018     -0.53556135957286
  H   -1.41146142526289     -0.23474747424197     -1.73566384045760
  H   0.23896240450073      1.42216851918318     -0.65364456290165
  H   1.52155165568248     -1.31873122673791     -1.37559983953028
  H   2.31488654615052      0.32720597048603     -1.39941479671665
  H   0.98942943254307     -1.00858640369403      1.07534531811789
  H   2.81345113951487      0.56975288553687      1.39197879992389
