23
Coordinates from ORCA-job orca
  C   -1.61786419444124     -0.49080075757194      1.80983821702790
  C   -1.36571541235022     -0.11111237513274      0.34313625998384
  C   -1.96150725705633      1.28020732454156      0.06295002176053
  C   -2.00067152089153     -1.16811359196876     -0.57839628369746
  N   0.10371748404051     -0.08259830157028      0.17506274392908
  C   0.60842866433030      0.18100268019847     -0.94480770890017
  O   1.94973012233664      0.21265829793030     -1.17402037741866
  C   2.77662170409267     -0.08996312110240     -0.08728148361935
  C   4.16632476608116      0.33242161517867     -0.19249200492133
  O   3.22663419587741      0.99421134170910      0.68154606751864
  H   -1.18025923433280     -1.46849903380237      2.03038176178887
  H   -2.68978843749978     -0.53226317866641      2.02816879485799
  H   -1.15397011700164      0.24126971147126      2.47634205759032
  H   -3.03275569365495      1.29265909330952      0.28695861546040
  H   -1.83562959270687      1.56835417054795     -0.98544809658968
  H   -1.47162651823650      2.03608226013177      0.68315419347175
  H   -3.07345339752957     -1.25685757493934     -0.38067611250246
  H   -1.54007666166946     -2.14630138296140     -0.41155137705549
  H   -1.87719670260936     -0.91047649037292     -1.63484575494224
  H   0.09135179651991      0.41005198706213     -1.88065475674981
  H   2.45796732999899     -0.96814299530207      0.46684085025402
  H   4.95224727757268     -0.23268936012564      0.30444430174784
  H   4.46749239912998      0.90889868143554     -1.06452092899456
