25
Coordinates from ORCA-job orca
  C   -2.50118767157267     -0.08848642709294     -1.22541339370276
  C   -1.57140151993530      0.04955094986573     -0.00781901431759
  C   -2.13059376143467     -0.77281838169679      1.16669871209180
  C   -1.45870627802392      1.53155248575047      0.39113161639175
  C   -0.19528114670127     -0.48970489537307     -0.42023312710495
  O   0.69678492346006     -0.38633987916736      0.69026471599648
  N   1.98380950750198     -0.89011815747996      0.30620374178857
  C   2.90258501967078      0.20616835255665      0.27378304747948
  C   4.15288474193823      0.02202570712802     -0.46746363208384
  O   3.08757033184690      0.81561515281183     -0.99444427062469
  H   -2.60344285747115     -1.13452169559176     -1.53366243918576
  H   -3.50151914901802      0.28799825917200     -0.98931328329639
  H   -2.12454032740559      0.48042045431713     -2.08200975712923
  H   -3.11523112581290     -0.39893153302294      1.46611927302723
  H   -2.24394629787689     -1.82675417421579      0.88988472840602
  H   -1.46805150453898     -0.72243638303332      2.03423139498543
  H   -0.77963482765247      1.66117335685132      1.23728415350806
  H   -2.43837849671052      1.93129952188604      0.67307695244270
  H   -1.07766451969191      2.13363950607802     -0.44062153404728
  H   0.20495119162964      0.08341979118468     -1.26679281202514
  H   -0.27123161602419     -1.54108148130272     -0.73054657802233
  H   2.23655313121187     -1.51110175119628      1.07306413965056
  H   2.84587154465638      0.91618101124405      1.10138589089689
  H   4.32382268957212     -0.92207085600007     -0.98118054305072
  H   5.04597801838247      0.56532106632704     -0.16362798207431
