19
Coordinates from ORCA-job orca
  C   -1.61340734708191     -0.21514485941773     -1.12995614806586
  C   -0.65563373507133      0.67257234320283     -0.32906300577160
  N   0.63062501628470     -0.01616764120674     -0.46079727669618
  N   1.66962004282695      0.67373424668741      0.08161529797955
  C   2.96240272143124      0.03510463389304     -0.15001791038661
  H   3.75077343249178      0.71876911800039      0.17447796320512
  C   -1.14721046805515      0.36325901672940      1.09641510231534
  H   -2.17817370834001      0.65638989482389      1.28189306573868
  H   -1.31356145966978     -0.39817355436404     -2.16361008056220
  O   -2.99774991766094      0.12387583056263     -0.98941720928162
  N   -1.77039493655804     -1.43797648432982     -0.28671708236473
  O   0.27583363379508     -1.28091435413700      0.54143388240077
  O   -3.16801091030024     -1.05541586264751     -0.10779094977767
  H   1.53238032994994      0.91069631292071      1.06412012369084
  H   3.06990935301549     -0.91631468919369      0.38441657915926
  H   3.06717589505343     -0.14694484392165     -1.22064092015589
  H   -0.49926410926848      0.70637759744680      1.90193507687435
  N   -1.02855816167470     -1.10292721110396      0.96008868927580
  H   -0.58675767116803      1.70920050605501     -0.64838319757736
