21
Coordinates from ORCA-job orca
  C   -3.32453387553703      0.26073752251738      0.11737503780071
  C   -1.98770800167560      0.27331767202769     -0.62877343491132
  C   -0.78232177007360      0.07785083662413      0.29619556579374
  C   0.55628904344860      0.10076456359808     -0.44731629084327
  C   1.76261172990898     -0.15419023135171      0.45395963429002
  C   3.08977279654879      0.00394705294536     -0.28782328116259
  O   1.61782023892944     -1.48116852112839      0.96369387753739
  H   -4.16770645692052      0.40054224823274     -0.56604845879155
  H   -3.36772629943969      1.05971129526564      0.86545714245189
  H   -3.47471409133834     -0.68909530415617      0.64152466210579
  H   -1.98742222629265     -0.51499422516059     -1.39250030110428
  H   -1.88073133092856      1.22105994850211     -1.17294049269139
  H   -0.87651404108146     -0.87414484212961      0.82987061755204
  H   -0.78410423803746      0.86426336458486      1.06381511299330
  H   0.68966139623263      1.06947083001202     -0.94478787743072
  H   0.55639901785647     -0.66309473085728     -1.23573301393976
  H   1.73410191321879      0.56715530005730      1.28851780385077
  H   3.93614931997456     -0.19980227317808      0.37792078974476
  H   3.14315117211676     -0.69485900195279     -1.12814732593450
  H   3.20789362980368      1.02234017411225     -0.67171278306163
  H   2.33963307328623     -1.64981167856493      1.57745301575059
