21
Coordinates from ORCA-job orca
  C   2.11405565575061      0.15034280662386     -0.06841777563097
  C   0.84946344292746     -0.17758814418982      0.69780715395078
  C   -0.24692061679342     -1.07729089143998      0.15301963118333
  C   -0.17945329621311     -1.73832637679504     -1.20785704807381
  C   -0.51479449190584      0.40286783980510      0.36630583011597
  C   -0.68482185373429      1.33239696341780     -0.82200369602342
  C   -1.40240313737289      0.78080541385252      1.53925129083879
  H   1.95054256680937      0.24571753918467     -1.14355588687875
  H   2.86788092269958     -0.63106763909691      0.07789147243853
  H   2.54735478203576      1.09362378579062      0.28160671936410
  H   1.03057854711450     -0.29328700784822      1.76484538476646
  H   -0.70684638620269     -1.71966745744486      0.90176484760369
  H   0.37270791123814     -2.68276701495103     -1.15053930142706
  H   -1.18398512552835     -1.96817085648357     -1.57979752404904
  H   0.31312576437876     -1.12090172799195     -1.96140949609822
  H   -1.72929449206059      1.34198148796684     -1.15431210802346
  H   -0.07129977721781      1.05510487754019     -1.68016851160042
  H   -0.42064204774883      2.36044706301408     -0.54802453176240
  H   -1.17215159443613      1.79052893443865      1.89983210941973
  H   -1.27148059772096      0.09032161599162      2.37769563361143
  H   -2.46161517601925      0.76493078861544      1.25606780627474
