16
Coordinates from ORCA-job orca
  C   2.33248168871753     -0.51552057102312      0.01580772298237
  O   0.92743496296628     -0.56152104347319      0.10298818088053
  C   0.31485516804559      0.71547677114361      0.05755174057106
  C   -1.17667102727175      0.51429590210677      0.31929410485658
  C   -1.86743782611733     -0.28040957050159     -0.79084390399054
  O   -1.36020316036978     -0.09519268570104      1.59067283762479
  H   2.66599128260217     -0.07711775944213     -0.93707935762592
  H   2.77115535423083      0.07409999409140      0.83543074722772
  H   2.69945663157408     -1.54207329084539      0.08023648114243
  H   0.73984816675596      1.36568885954962      0.83816125864865
  H   0.48634121309728      1.19595614436401     -0.91954122044034
  H   -1.63901178797085      1.50542834661742      0.39882620675455
  H   -1.37759199214587     -1.24819186754035     -0.93212357929349
  H   -1.83303437398666      0.26105412888446     -1.74264814483767
  H   -2.91374327562048     -0.45268897861805     -0.52734209643530
  H   -0.76987102450701     -0.85928437961243      1.61060902193457
