17
Coordinates from ORCA-job orca
  N   3.17960942248811      0.11516769880816     -1.02255076055350
  C   2.11048106396309      0.14752494373573     -0.57794381961503
  C   0.77140005410719      0.17062237175589     -0.04579557635324
  C   0.51717784699121     -0.59888421977472      1.28841912094586
  C   -0.66707036997742     -1.36672661777293      0.63162769745127
  C   -0.44288029627806     -0.61339433710634     -0.70249425118634
  C   -1.21655445947321      0.72055602500710     -0.84435946937884
  C   -0.03536330704528      1.49894586244323     -0.19459293894212
  H   0.26943509724691      0.04874527166576      2.13279519814048
  H   1.35178188232448     -1.23832224882130      1.57875620595547
  H   -1.64796768873009     -1.20902756027004      1.08790541371739
  H   -0.49620394497426     -2.44264745656161      0.56168537056375
  H   -0.31948236082260     -1.21668667943965     -1.60156131058560
  H   -2.16595576871782      0.75898243894348     -0.30368475867274
  H   -1.40531031731815      1.01002484663485     -1.87986292354042
  H   -0.24525921816852      1.99820044289519      0.75436666293516
  H   0.44216136438442      2.21691721785719     -0.86270886088155
