22
Coordinates from ORCA-job orca
  C   -1.56172943133558     -1.58950895270583     -0.65091562569176
  C   -0.77397151666303     -0.34601778402636     -0.22781523563951
  C   -0.89479232062406     -0.13143385454222      1.28214125649050
  C   0.68076538189229     -0.48039980386721     -0.72528184071164
  C   1.71177070864038      0.50015199178796     -0.20956242297050
  C   2.54113757720681      0.20126853929358      0.96346437908966
  O   3.07098998776971      0.06673919010724     -0.35559258683588
  O   -1.47253872991179      0.71819284167358     -0.97866241862971
  C   -1.29825291892681      2.02072679389887     -0.75068385120721
  O   -0.54224375204888      2.54542184857894      0.02590812344964
  H   -1.50628129007832     -1.73105983019982     -1.73334825671030
  H   -1.15803622940053     -2.47937350770398     -0.16142765636019
  H   -2.61310296439663     -1.48551152705313     -0.37181120194508
  H   -1.94560205096485     -0.01357535193701      1.56184238175235
  H   -0.50774700313493     -1.01569257696780      1.79729071870923
  H   -0.34236653819190      0.74297702742120      1.61958096486889
  H   1.02819170736488     -1.48551348527530     -0.46165666919058
  H   0.66392960818019     -0.43906791199003     -1.82064624262005
  H   1.55312042018117      1.54691481098306     -0.45118347064468
  H   2.39563003476272     -0.73281619200560      1.50613042327494
  H   2.95315393727575      1.01475995852244      1.55874870769751
  H   -1.98202361759660      2.57281877600741     -1.41651847617565
