24
Coordinates from ORCA-job orca
  O   -1.90634964864408      2.42545413910741     -0.53047658401172
  C   -2.70585598102033      1.52933046264120     -0.65082675297676
  C   -2.39171762848332      0.06269629230928     -0.45943964795375
  C   -0.91604743698007     -0.17984728887695     -0.20350134730732
  C   -0.26312025612099     -0.07215039463893      1.19733845335044
  C   -0.94492944196160     -1.42472379423939      1.48376043282070
  N   -0.43472250588839     -1.62969763962380      0.04529051102037
  C   0.86045805106619     -0.95482169375096      0.58991997873373
  C   1.88262415354158     -0.45539603884221     -0.39915545064065
  C   2.04949736862812      0.99967674145353     -0.76864091768969
  C   3.06600986267482      0.33067553779562      0.11543501337273
  H   -3.76617333624241      1.74504351286350     -0.91420109558801
  H   -2.71412497753021     -0.47188149722464     -1.36484013764405
  H   -3.05918917207744     -0.30114165803143      0.33201561548874
  H   -0.35311911165051      0.28446239939441     -1.01122712675521
  H   -0.17451165017539      0.80852491058177      1.84341790394175
  H   -0.47280369014393     -2.09045845088511      2.21103425489677
  H   -2.02955435327104     -1.46526023955950      1.58590147965390
  H   1.34631164484250     -1.62900501625700      1.30435576717905
  H   2.10077045322919     -1.17873074498139     -1.18120071377169
  H   2.32939584752814      1.23559356756870     -1.78973345464693
  H   1.37708330644198      1.72329917983580     -0.32047316725581
  H   4.04677788325582      0.11040949340126     -0.29103290919167
  H   3.07328961898138      0.59794821995879      1.16759689497508
