14
Coordinates from ORCA-job orca
  C   1.02173921124956     -0.31310525779093     -1.37270107965928
  C   0.17965636332273     -0.60659734417661     -0.14001439714745
  C   0.43103330242484      0.24026707861389      1.16626732898792
  C   -1.02944740180100      0.69909420034569      1.09438645923942
  O   -1.20703742803863      1.35442734276723     -0.16899666436565
  C   -1.26880283631258     -0.07808604736288     -0.12943568183217
  H   2.07381596179041     -0.56185170431702     -1.19974546054643
  H   0.67916550204770     -0.89656919673808     -2.23420099693728
  H   0.95821279775316      0.74729502090821     -1.63130816149202
  H   0.19470856356063     -1.67472530015038      0.10000549125598
  H   0.65316721668092     -0.38085013302938      2.03713982997512
  H   1.16872364329582      1.04367044781441      1.09364473381089
  H   -1.69249131572749      0.98022513855969      1.90478702094748
  H   -2.16244458024605     -0.55319424544387     -0.51982742223653
