14
Coordinates from ORCA-job orca
  C   -0.30205838797235     -0.13724674140566     -0.88937802424626
  C   -0.12751323075319     -1.44416151167947     -0.71707611560237
  C   -1.46292450040339     -0.84239056421468     -0.34553187255596
  N   2.15460364128395      0.19813060374601     -0.18500371722602
  H   0.40117422859634      2.71932564828550      0.81325552706939
  C   -0.50789888371404      1.11874795565770     -0.34870150897427
  N   1.79965219236375     -0.88443810476853      0.49072856934689
  C   0.99457274453682     -1.83820289818823      0.13522822939327
  O   -2.55322518951112      0.01563379396132     -0.91809236642475
  O   -1.73077607027590     -0.24891543177056      0.92938233841863
  N   1.81394260825191      1.39128992047302     -0.01350737512655
  C   0.51721432305537      1.78747283416201      0.26883669172229
  N   -2.04587553445048      0.94565011179668      0.11344849642696
  H   1.04911005899232     -2.78089661605510      0.66641212777876
