18
Coordinates from ORCA-job orca
  C   2.22722171195821     -0.09995136833138      0.51900825428198
  C   0.85966488047499      0.02107809247435     -0.06562837564616
  C   0.23750206657682      0.87003969890407     -1.13026250703705
  C   -0.42253835739882     -0.33272649721024     -1.80655018272886
  C   -0.26789541926577     -1.05280024316597     -0.43378554904809
  C   -1.16302046246384     -0.25285875595714      0.48832879076003
  N   -2.09221830612719     -0.64173663862460      1.25715017996168
  O   -2.55071140938315      0.43187340618999      2.06546622421475
  C   -0.31009073003984      0.94679712347894      0.31566731561289
  H   2.88805511346231     -0.68889040258669     -0.12632786728850
  H   2.19972129891774     -0.58332261933681      1.50134121501333
  H   2.67803997492640      0.88945132768592      0.64468044221032
  H   0.64171818736033      1.75997402419271     -1.59806736755277
  H   0.23273063253552     -0.76647483389312     -2.56665771770885
  H   -1.43855386382344     -0.22913839812327     -2.20171927937034
  H   -0.19686506538112     -2.13377950034276     -0.34828424068557
  H   -3.23578252983120      0.00513709108833      2.58961339103707
  H   -0.28697672249796      1.85732749355768      0.89602627397411
