13
Coordinates from ORCA-job orca
  C   1.29331519804347     -0.61115359645873      0.35274164876192
  C   0.15760542044699      0.23444683552781     -0.17595514178479
  O   0.57493593707967      1.39880925173631     -0.84825981851326
  C   -1.15459281357905      0.30085230305215      0.56514968258040
  C   -1.05321636014519     -0.40627075747234     -0.77578467801069
  H   0.92090918649128     -1.52357239718025      0.82766530287802
  H   1.87619526376987     -0.06117821389686      1.10185843016847
  H   1.97016363433700     -0.89411130146972     -0.45951567669759
  H   0.95736243360469      1.99788573385311     -0.19662865388189
  H   -1.28188983807720     -0.29754687375695      1.46132656284007
  H   -1.66166264107925      1.25939630729664      0.57820299137359
  H   -1.49052177436175      0.09177359360152     -1.63335427764138
  H   -1.10860364653053     -1.48933088483269     -0.79744737207287
