20
Coordinates from ORCA-job orca
  C   2.27483297787314      1.47880333917022      0.31885416998749
  C   1.59080826419474      0.44689932924664      0.80611659482864
  C   0.97612108405105     -0.65357190676697     -0.00990967502738
  C   -0.56007887355111     -0.76523198200248      0.11956309667480
  C   -1.05498464147216     -2.07092842041394     -0.51711836459414
  C   -1.28910344137178      0.44108302686726     -0.49817844103905
  C   -1.16248118327390      1.75113977122712      0.25203271798198
  O   -1.13707696166430      2.83799747080794     -0.26826286551002
  H   2.69627000224732      2.24217116068087      0.96370654382832
  H   2.43663963904991      1.60261078584386     -0.74809439993196
  H   1.45320415577973      0.36645462309718      1.88474111436170
  H   1.24065299695195     -0.52659781477133     -1.06689330483510
  H   1.40953484476892     -1.61202748860208      0.30712894093690
  H   -0.80831148770101     -0.79659797631996      1.19030878596192
  H   -0.57487544499230     -2.94030059503411     -0.05804067138947
  H   -0.82988108684729     -2.09437700926700     -1.58905818329572
  H   -2.13715697487366     -2.18516522614656     -0.40258856802079
  H   -2.36868425875372      0.22534582085316     -0.50560703314713
  H   -0.99867952750010      0.60267288651791     -1.54157219760301
  H   -1.15675008291544      1.64962020501227      1.36287173983202
