20
Coordinates from ORCA-job orca
  C   -2.44964658303636      0.96476562685317     -0.31406929053169
  N   -3.01078107427867     -0.16870575935911     -0.32475973816188
  C   -2.19628685037256     -1.37888076216741     -0.15241570421799
  N   -2.89219767102333     -2.22412312767392      0.82795166611772
  C   -0.77528006369714     -1.16253508888283      0.16991995031333
  C   0.39725856419788     -1.01675728416086      0.42059750258221
  N   1.71532572219317     -0.87998586499846      0.68182923537275
  C   2.51355407838083     -0.05961559720653     -0.18430455848927
  O   2.16226313570572      1.31072537779425      0.01628075245557
  N   2.97153552951778      2.10429631086084     -0.87031297822348
  H   -3.07205712552928      1.84968475214042     -0.45485062174552
  H   -1.37306583064315      1.11545267165512     -0.17024226817054
  H   -2.26026544844644     -1.90280769704250     -1.11599286013929
  H   -2.35291790997310     -3.07484030706860      0.96287481324237
  H   -2.89240023599067     -1.74447742146850      1.72496356070572
  H   1.94959721816913     -0.79361649132548      1.66282000737451
  H   3.57345168000211     -0.21186928828485      0.04956501137631
  H   2.32951128619995     -0.34787519717102     -1.22486312671815
  H   3.37236101001405      2.81241774749508     -0.25702875959660
  H   2.29003956861009      2.59586640001119     -1.44796359354608
