15
Coordinates from ORCA-job orca
  C   -2.00886928137936      0.23075993105904      0.06733376805987
  C   -0.71138018653634     -0.30766577245583      0.67747110439134
  C   0.40706023258985     -0.44379628895845     -0.33422275336131
  C   1.84641878627595     -0.43788303041864      0.10700822037700
  C   1.28763956522554      0.73609595291281     -0.66058436240302
  H   -1.85375147913317      1.21617043789097     -0.38354352887134
  H   -2.79625993812217      0.32546649588043      0.82147782468096
  H   -2.38145770745941     -0.43536813717261     -0.71850136745627
  H   -0.37915205515075      0.35711669071990      1.48574886940214
  H   -0.90215455977882     -1.28154068429024      1.14702957922961
  H   0.16988396643660     -1.10028145771425     -1.16953788172899
  H   2.05006233605941     -0.30597605474035      1.16507794968004
  H   2.54713647195525     -1.09397517491823     -0.39804331410388
  H   1.61085104791493      0.87893310281757     -1.68606969097459
  H   1.11397380110249      1.66194298938787     -0.12064341692156
