25
Coordinates from ORCA-job orca
  C   3.02428175624266      1.35495854982485      0.60265843213295
  O   1.70707541700921      1.35749082529921      0.10554082616097
  C   1.37596397225513      0.24353150066613     -0.72452351917707
  C   1.93721373547205      0.41880339492532     -2.13764751887961
  C   -0.14773356564335      0.12891208027554     -0.72518766383348
  C   -0.74608060444278     -0.16134432058750      0.65545932381298
  C   -2.25865274958675     -0.23699447511739      0.63309197711851
  C   -3.01067248633042     -1.00051190619141      1.68989340304248
  C   -2.96092925103167     -1.52277331937025      0.27571431957334
  H   3.13072104873005      2.23499958708572      1.24151443194521
  H   3.23047993853650      0.45473680974163      1.20329927467546
  H   3.78107584307638      1.41371488195035     -0.19319841138751
  H   1.80346866161826     -0.67094438502585     -0.27687251277260
  H   1.69106559039333     -0.44553891655154     -2.76244104198912
  H   1.51447486198731      1.31510849109523     -2.60233098546843
  H   3.02598454412372      0.52091230971888     -2.12838090372437
  H   -0.43991348139026     -0.65840602355838     -1.43073281893058
  H   -0.55972787974608      1.06825314594740     -1.11707768649676
  H   -0.34198592361121     -1.10939182257802      1.03774830093748
  H   -0.42075699011732      0.61726344110585      1.35424832218722
  H   -2.73941200171914      0.67388933729792      0.28031530516199
  H   -2.43515019362086     -1.52391307882493      2.44765478532179
  H   -3.94684787241824     -0.59460941033010      2.05940611499584
  H   -3.86337713065555     -1.47855060123253     -0.32543116478993
  H   -2.35056323913098     -2.39959509556615      0.07885541038326
