14
Coordinates from ORCA-job orca
  C   2.44818630759671      0.48616149479760     -0.30544598864898
  C   1.19468573375348     -0.14589456490339      0.24450342506649
  C   -0.02872426927233      0.01471982954535     -0.26114800298791
  C   -1.23457842132420     -0.60520141081757      0.31742829443322
  C   -2.56698428392633      0.01244271114462      0.19337873653486
  O   -2.21643371894957     -1.11087432548657     -0.60665987889518
  H   2.62689240089821      0.18088766929639     -1.34194042797087
  H   3.32688223420136      0.20179219986311      0.27758625603453
  H   2.38605981355597      1.57942707266360     -0.29652158722674
  H   1.30749088999481     -0.77938659370226      1.12304292727670
  H   -0.19098268296182      0.62708250397762     -1.14742837659385
  H   -1.06344089670924     -1.25239459561618      1.17851373262723
  H   -3.31645789202357     -0.16590325734098      0.96410318980639
  H   -2.67259521483348      0.95714126657866     -0.33941229945589
