18
Coordinates from ORCA-job orca
  C   -2.04345570674291      0.59767112170517      0.10687188542186
  C   -0.74380065635088     -0.18859684352195      0.32129464467938
  C   -0.77778720561997     -1.51623915490579     -0.44942760579417
  C   0.46602027847402      0.68020518590185     -0.06115713477705
  C   1.82394354259340      0.04298005501543      0.30087163856563
  C   2.95205659072153      0.92196782757681      0.00331746376813
  N   3.83723201141090      1.62598108886269     -0.23646428044011
  H   -2.91309699745778      0.00879700450308      0.41280948898900
  H   -2.04793903787489      1.52769383482259      0.68313380301971
  H   -2.17419619150976      0.85873718198580     -0.94911569776463
  H   -0.66309421700219     -0.41981461738751      1.39302697172503
  H   -1.66632065438329     -2.09685406628450     -0.18492252190784
  H   -0.80794079604023     -1.33773976984335     -1.53025839216301
  H   0.09244506498496     -2.14352632385482     -0.23735370586239
  H   0.39305512237231      1.64967037032118      0.44163859772628
  H   0.44482045079392      0.88591034258658     -1.13768883292690
  H   1.85327243662231     -0.20359406977463      1.36837315726762
  H   1.97478696500855     -0.89325016770862     -0.24494947952654
