13
Coordinates from ORCA-job orca
  C   2.11876943790707      0.11107279293541     -0.03855173952212
  C   0.79907980720723     -0.03996262975369      0.70190594429897
  O   -0.12193145876611     -0.59347368411045     -0.22774849316107
  O   -1.37033178657875     -0.78072805260663      0.48675745125233
  C   -2.32908928845227      0.01203717299767     -0.18194148318204
  H   2.87299103020676      0.52681211153858      0.63520230754338
  H   2.01176718169791      0.78204182690485     -0.89488777631711
  H   2.47335028818870     -0.85736478501744     -0.40031113081748
  H   0.43280545473515      0.92995363087351      1.06670839908518
  H   0.90189791530309     -0.71027383850347      1.56511600438402
  H   -3.26580861302615     -0.16649404657822      0.35441831105227
  H   -2.08013122068405      1.08003999991815     -0.13853716805807
  H   -2.44336774773857     -0.29366149859827     -1.22860562655826
