16
Coordinates from ORCA-job orca
  C   -2.31988068760546      1.36797078837973      0.21208538115001
  C   -1.67161089103317      0.23548381750875      0.01940414762495
  N   -1.77079564867737     -1.03693093298078     -0.55587309288043
  C   -0.53060128667952     -0.64200911930082      0.19556258822442
  C   0.72674538540064     -0.54228099039168     -0.64833654086187
  N   1.70559623808780      0.37501511560199     -0.08318333036589
  C   2.58633869063704     -0.01016473825097      0.87934451536008
  O   2.68182251754811     -1.13897127682861      1.31789751175495
  H   -1.84463876293724      2.19537015215377      0.72477884458741
  H   -3.33953192675161      1.50258014522035     -0.13081655977449
  H   -2.37135132123696     -1.68607497713075     -0.05357761987377
  H   -0.37635835197021     -1.07048495575216      1.18466476062641
  H   1.20093360548791     -1.52456039460945     -0.71811684406155
  H   0.46098314287391     -0.21064954663406     -1.65434959498548
  H   1.63363845210731      1.35740701799997     -0.29560912825982
  H   3.22871384474881      0.82829989501473      1.21403296173507
