18
Coordinates from ORCA-job orca
  C   1.97219696152815     -0.98699854031089     -0.06577752494683
  C   1.31854787004043      0.26627702622512      0.48103479180725
  O   1.48780760536735      1.41682326212833     -0.39162367608087
  C   0.07173147936496      1.51931675666380     -0.66033448563709
  C   -0.19784667921882      0.37551088564819      0.31244362713466
  C   -1.31663534425938      0.20021437616794      1.29197921129043
  N   -1.11353562801998     -0.71923244231454      0.18392664483374
  C   -1.95610307900469     -0.96477717781202     -0.88396055269691
  O   -1.61572954171925     -0.92680415621726     -2.04333340983981
  H   3.05251707400594     -0.84015812692107     -0.14933145473446
  H   1.78794408505100     -1.83440789192184      0.60237876679850
  H   1.56937071403342     -1.22860999759978     -1.05294709371973
  H   1.68073826483540      0.49304553029667      1.49260511301090
  H   -0.17311611935518      1.30632811687643     -1.70571924300939
  H   -0.33606890593822      2.49561278549036     -0.37238507720808
  H   -2.15093381378585      0.89685355930724      1.23265800568458
  H   -1.11326771079164     -0.19677152594713      2.28332928457379
  H   -2.96761923213363     -1.27222243975955     -0.55494392726069
