20
Coordinates from ORCA-job orca
  C   -3.70229820624213      0.41263134515708      0.23128483620267
  C   -2.17421197561095      0.40400565857649      0.29875183640806
  C   -1.57080193008947     -0.94387742460233     -0.02724462425167
  N   -0.34058971631599     -1.25043417429067     -0.06686503086631
  C   0.64025397417604     -0.24408004410318      0.22199223876370
  O   1.90791924561206     -0.86372059302550      0.07562360847258
  N   2.91710655436907      0.13187006764036      0.31017839452722
  C   3.81767793835432      0.10471677464986     -0.83779831731941
  H   -4.13241846658036     -0.30669070511690      0.93536414950109
  H   -4.05463260994011      0.14780057596725     -0.77068513054782
  H   -4.10376186279993      1.39959995962823      0.47586415516426
  H   -1.83407910424315      0.71044365236603      1.29789089026684
  H   -1.75733337542029      1.15284476881703     -0.38906502208385
  H   -2.28127716833136     -1.74546878657694     -0.25578386176441
  H   0.56696143059704      0.61635099172549     -0.46442471231606
  H   0.53311998150776      0.14812389672690      1.24805322898349
  H   3.41586159636133     -0.23303983100605      1.12031382281859
  H   3.29634648682896      0.50195975190427     -1.71232021526423
  H   4.66719736696932      0.75783776402692     -0.61276046092493
  H   4.18896184079784     -0.90087564846434     -1.07836878576981
