20
Coordinates from ORCA-job orca
  C   1.87772336587924     -1.29405772077164     -0.23678518295065
  C   0.83758751411547     -0.17153787196111     -0.11193201931228
  C   1.34565060330312      0.92763512462888      0.82929837312106
  C   -0.50667731867400     -0.79469965769734      0.32812398072807
  N   -1.73434010508964      0.00654003095260      0.31000930067833
  C   -2.01347736779161      0.66970420161509     -0.95552937132936
  O   -1.62462975911322      1.05050985629691      1.30525385184961
  H   2.05107161467928     -1.77781080249825      0.73214967599304
  H   1.55750155932376     -2.06885593821178     -0.94158867980145
  H   2.83895516846543     -0.90213760650936     -0.58376147048368
  H   0.70082569382465      0.26396944159484     -1.11074284202174
  H   1.45521845695659      0.54348015439033      1.85037407698448
  H   2.32746156195592      1.28825328353506      0.50259657570321
  H   0.66202122020622      1.77601607099597      0.87667540431908
  H   -0.40719067840046     -1.18858486067975      1.34649887805626
  H   -0.71971468738746     -1.65364434938259     -0.32181625614598
  H   -2.04176068135547     -0.08870155732232     -1.74450102179521
  H   -2.99516977321489      1.14602575660205     -0.89687792886466
  H   -1.27281837529088      1.43580821848710     -1.22656155221517
  H   -2.33823701239205      0.83208822593533      1.91529020748702
