16
Coordinates from ORCA-job orca
  C   3.16228021146849     -0.56302943813712     -0.41822306936990
  C   2.00039845977629     -0.29668607090539     -0.56867688786479
  C   0.58856187128531      0.03145712620137     -0.73974171692306
  C   0.09611099281297      0.98828760856594      0.36828339870083
  C   -1.41012593237309      1.07968671331151      0.37401403103796
  O   -2.09511635824238      1.15816269080206     -0.80562100509197
  N   -2.22870117555633     -0.06446567563325      0.16271219888712
  C   -1.55276261235915     -1.19918006540704     -0.38152370454607
  C   -0.28223840943476     -1.20578268977483     -0.78466210102900
  H   4.19124970339245     -0.79910858533549     -0.28947677362252
  H   0.47275570387469      0.54267243432385     -1.70584151924840
  H   0.51401773403526      1.98917262374764      0.23712686528459
  H   0.41857929690817      0.62320427103694      1.34741245964454
  F   -1.84063999331312      1.90431282291682      1.34830834055692
  H   -2.18643123583772     -2.07581653015749     -0.44882742729514
  H   0.15206274356293     -2.11288523555553     -1.19028308912113
