15
Coordinates from ORCA-job orca
  C   -2.09182223176665     -0.58963569473744      0.03624437626677
  C   -0.58270677329566     -0.62783182019469     -0.17338684556930
  N   -0.09102218897393      0.71561618193501     -0.51429738040333
  O   -0.09744385952959      1.43708379169500      0.71949375520748
  O   1.24104498511746      0.66803673423645     -0.99261060484739
  C   2.20987977277387      0.11537427017084     -0.09734391890534
  H   -2.59689712314866     -0.21962302956795     -0.85990309532328
  H   -2.46664043522936     -1.59296044505160      0.25738332679942
  H   -2.34404743424956      0.06627015534206      0.87218030049182
  H   -0.31983215102127     -1.25893418467039     -1.02640241679948
  H   -0.08101894778346     -1.01956320863976      0.72150707615632
  H   -0.22378097916823      2.34797455812347      0.42825632415046
  H   2.12303657980379     -0.97359448786830     -0.00279016899290
  H   2.14636417578199      0.57953348040336      0.89079975466743
  H   3.17488761068927      0.35225369882392     -0.54921448289869
