15
Coordinates from ORCA-job orca
  C   2.40040705882295      0.06488069305475      0.92379587139913
  C   1.57729780234565      0.85817759117426      0.25086499790190
  F   0.72138760069043     -1.82300680664415     -0.10029625373680
  C   0.04278838459728     -0.78670055805882     -0.74361163783336
  C   -1.45226041699377     -0.95346222985286     -0.56384616396689
  O   -1.67780543876742     -0.37570181143326      0.72122459473619
  N   -0.75719540566196      0.70045309605696      0.91642380185969
  O   -1.40180032919537      1.89560903380731      0.56101686378299
  N   0.26750440624423      0.47234062106682     -0.11781318796369
  O   3.18166408133628     -0.59556030965904      1.46895484400924
  H   1.92466312757716      1.86177123416441      0.03649711709903
  H   0.38950632656024     -0.77674916272435     -1.77977607969190
  H   -2.00761924220702     -0.44497027572340     -1.36433134171637
  H   -1.75006014363055     -2.00086545117437     -0.51390666538254
  H   -1.45847981171811      1.90378433594573     -0.41068576049661
