18
Coordinates from ORCA-job orca
  C   2.66906573775621      0.82573132442683     -0.05840069989378
  O   1.26822803186776      0.80121262070345      0.10304620058227
  C   0.75479379253562     -0.50078115952504      0.24088702726487
  C   -0.72901318433191     -0.47871938099490      0.42187408521571
  C   -1.48779826351247      0.80692925970099      0.70426134220007
  C   -1.85541034066618      0.69062852193782     -0.74163911913776
  C   -1.69594994063799     -0.60174664672765     -1.20567668424181
  C   -1.54150055446241     -1.58706381972426      0.01961707648431
  H   2.98212874318378      0.28886273794035     -0.96620913445237
  H   3.18617153165861      0.37767362076207      0.80405518066472
  H   2.96732013099788      1.87186115705815     -0.14521025613924
  H   1.20317194294221     -0.99840691774581      1.12294361067266
  H   1.00386630330816     -1.12264369435584     -0.63535274161067
  H   -2.29977108968648      0.70045073146540      1.43331517572143
  H   -0.84868550790925      1.64870060306860      0.96918624371179
  H   -2.04759563802299      1.53510457413731     -1.40220281843748
  H   -2.47957382262670     -1.73780292918458      0.55276778114736
  H   -1.04944587239383     -2.51999160294289     -0.24142026975209
