10
Coordinates from ORCA-job orca
  C   1.71384256075201      0.49494984551830      1.02751953583329
  C   0.50119001111481      0.14461979342873      0.30054002342346
  C   -0.50117814492586     -0.14489283147897     -0.30042583478805
  C   -1.71386356361181     -0.49503383298660     -1.02754583767360
  H   2.57549073293353      0.56481299734531      0.35513258039062
  H   1.61041953890045      1.46104845889738      1.53286426358841
  H   1.95102641015408     -0.25329298824343      1.79124754395806
  H   -1.50814808693989     -0.65759287191952     -2.09086846113210
  H   -2.16345646622734     -1.41291453875619     -0.63408044937210
  H   -2.46532199214998      0.29829596819498     -0.95438336422799
