13
Coordinates from ORCA-job orca
  C   -2.10274555250942      0.04255634107326      0.18809896613449
  O   -1.23645588873794     -0.97463688732604     -0.28935513393156
  C   0.04178960345408     -0.53649755206216     -0.57197810755363
  O   0.70256284872261     -0.17768689163710      0.62162690562100
  C   1.99334476994332      0.33983968036982      0.39690696829022
  H   -2.22848983677401      0.83807047386818     -0.56176121714410
  H   -1.72896060457872      0.48663911153742      1.11681160132992
  H   -3.06933782440949     -0.42816277717149      0.37395234078468
  H   0.56164994615647     -1.37124636716594     -1.06606458358705
  H   0.02950354574883      0.33652130007109     -1.25793226165114
  H   2.41811882113540      0.58786512081681      1.37103873389212
  H   2.64900364119481     -0.39328746870596     -0.09830470845535
  H   1.97001753065405      1.25002591633213     -0.22304250372960
