15
Coordinates from ORCA-job orca
  N   2.41836410762109      1.01307784204940     -0.14462223755933
  C   1.23916288410493      0.54911079414125     -0.16801193947863
  C   0.85015985462951     -0.92805351480002     -0.19149658130840
  N   -0.46296331114817     -1.26407777908339      0.35746803900286
  H   -0.42903591561465     -1.22353374273345      1.37248750876757
  C   -1.46741652825017     -0.32320412727618     -0.13357030471471
  C   -1.08196357563545      1.11650785442111      0.17462664408688
  O   0.22867855673951      1.44995017092404     -0.29982832360560
  H   3.09299995558998      0.24950832637955     -0.10600309182965
  H   1.61925740164970     -1.50501979685979      0.32726614852645
  H   0.86784408593904     -1.24448195178745     -1.24400119328402
  H   -1.56434708943212     -0.46034996295502     -1.21759985133813
  H   -2.43852647605896     -0.55213593767534      0.31659085072526
  H   -1.11717705180217      1.28955104993365      1.26043295851536
  H   -1.75503589833204      1.83314977532162     -0.30373962650590
