16
Coordinates from ORCA-job orca
  C   -1.95581120798031     -0.04385515215736     -0.33810033335188
  C   -0.50381117476225     -0.09890763380215     -0.79788373242657
  C   0.38537788205733      1.02778059537847     -0.22416287611692
  C   1.13034002867908      0.33422226973120      0.92632101231368
  C   1.27637963601033     -1.08285716119044      0.37366744627749
  O   0.07649971916932     -1.33571528586866     -0.34659843640921
  H   -2.48567242624463     -0.94803616309439     -0.64966047884045
  H   -2.01836462351287      0.02737906931935      0.75261977385649
  H   -2.46699973720625      0.82176009960119     -0.77272800603902
  H   -0.47374821161088     -0.09052506770517     -1.89614095855557
  H   1.09750038675315      1.37456491669880     -0.97929791502418
  H   -0.20132882039487      1.89214057497257      0.09657258833469
  H   2.08771362495245      0.80396795139920      1.16589341445963
  H   0.52343447538991      0.32522517753518      1.83732793635879
  H   2.15199630991084     -1.15437573136302     -0.29258034396413
  H   1.37649513878966     -1.85276845945476      1.14474990912715
