20
Coordinates from ORCA-job orca
  C   -1.57274334189347      1.95264172756548      0.20490069460960
  C   -0.82978068763250      0.65067574513789      0.12911044420672
  C   -1.50192750603241     -0.71869014417944     -0.00393000945513
  C   -0.50059472052788     -1.21820750651420      1.06402805212820
  N   0.10521750528261      0.15369075050947      1.23426371969366
  C   0.63223872616172      0.56262973174368     -0.09012670724180
  C   1.34046027333071     -0.37402777854776     -1.05595147897598
  C   2.65145420366996     -0.86497731061933     -0.47781108312908
  O   2.92230577404292     -2.02525648051389     -0.29426459558129
  H   -0.91989974939141      2.75512886982730      0.55819694877124
  H   -2.42467847560319      1.87999701641435      0.88872968234735
  H   -1.95735741568060      2.23599727745915     -0.78183353583895
  H   -1.48609295130380     -1.18493145799982     -0.99382728241353
  H   -2.53276708312146     -0.71094141249325      0.35500767710211
  H   -0.97407433943024     -1.51428868250789      2.00105098420173
  H   0.21310954478929     -1.99320193777051      0.77248815731702
  H   1.14382155298593      1.51855774457114      0.01255927665543
  H   1.57080330190888      0.19723215137088     -1.96592749656726
  H   0.74435290510369     -1.24067504645391     -1.34476324906199
  H   3.37615248334124     -0.06135425699933     -0.21189819876806
