13
Coordinates from ORCA-job orca
  C   -2.25881646131128      0.29490658067434     -0.07664788958123
  C   -0.86343319125989     -0.21559126189478     -0.16788525593106
  N   -0.48551399091685     -1.34414238234163     -0.70398113124813
  N   0.89913817978245     -1.42829031509523     -0.60289110844534
  C   1.30484552441046     -0.34695922228748      0.00936659338899
  N   0.24125233132629      0.46305663476237      0.30608760072192
  N   2.60603888449766     -0.05396915840663      0.40108659216553
  H   3.23049607975493     -0.78486393800243      0.08235034521382
  H   -2.56838555081769      0.45030242870721      0.96287175379130
  H   -2.92513437649746     -0.43913888703685     -0.53024112311712
  H   -2.37716534854100      1.24729911935346     -0.60539586557465
  H   0.25840123539186      1.31049605596207      0.84827289927299
  H   2.93827568418052      0.84689634560558      0.07700658934298
