19
Coordinates from ORCA-job orca
  C   -1.50848845556517     -1.25151223066269     -0.80562226989947
  C   -1.04051093617493     -0.56198317826879      0.48390530722875
  C   -1.73333549232161      0.78771021372326      0.69538341238796
  C   0.47618958325079     -0.47419128792974      0.49360271956658
  O   1.10390072211447      0.32549987938370      1.50122457465410
  C   1.26587340514678      0.71006229818832      0.12668316719270
  C   2.65629938715197      0.61189113838953     -0.44532044564394
  H   -2.59056751589257     -1.41182308404700     -0.79193870498206
  H   -1.27192566140728     -0.64036546927110     -1.68340474934104
  H   -1.02936354989043     -2.22720277980376     -0.93741466376601
  H   -1.30781165478034     -1.21024375326934      1.33085730739887
  H   -1.62496944565600      1.43484462244281     -0.18146636293715
  H   -2.80466857246585      0.64543751209449      0.86462400690304
  H   -1.31561396809426      1.30627212355993      1.56215999069709
  H   0.96590633421710     -1.44133169114537      0.34840213319557
  H   0.72434810760807      1.62090702816289     -0.12924413420323
  H   2.61930439123870      0.64846935017470     -1.53949527565389
  H   3.14078828170139     -0.31971332368003     -0.14295607425864
  H   3.27464503981918      1.44727163195818     -0.10187693853922
