23
Coordinates from ORCA-job orca
  C   2.34555701328721      1.04913504359181      0.13357767593066
  C   1.58684122516333      0.30054002566242     -0.96817930140153
  C   0.55664980674246     -0.75306357408628     -0.51980284565768
  C   -0.77963162138493     -0.30915419047750      0.13763498765524
  C   -0.58608619432619      0.16862967530700      1.58924886194695
  C   -1.45833630026270      0.80123586709993     -0.68238730820450
  C   -1.70611298162925     -1.54082445688591      0.16346149311513
  H   1.72028273507774      1.77965452501247      0.65229196557967
  H   2.73940911160745      0.35851554981294      0.88767667950616
  H   3.19598427042478      1.59509411516596     -0.28756518499637
  H   1.10867827951608      1.02367451921491     -1.63959404976545
  H   2.32195683698186     -0.22609305611402     -1.58951666986135
  H   1.04930506297553     -1.46487118033882      0.15743638215473
  H   0.29249232475038     -1.33357647735753     -1.41366403857326
  H   -1.55550142036983      0.38013867152927      2.05408357008770
  H   -0.09028864885138     -0.59864249534506      2.19395091510252
  H   0.01157645625668      1.08019288043389      1.65182619456606
  H   -2.44663201981495      1.03462660297255     -0.27163818629518
  H   -0.87563826497591      1.72739398761658     -0.67840038042520
  H   -1.59776271022941      0.49790795104888     -1.72616297367266
  H   -1.24892375397794     -2.36934580169198      0.71578915286179
  H   -1.92379918435972     -1.89561023511251     -0.84969165887694
  H   -2.66002202260129     -1.30555694705901      0.64785571922351
