10
Coordinates from ORCA-job orca
  O   -0.95696381209236      0.23201666154690     -0.50219730889054
  C   -1.98043018793991     -0.36556484953441      0.16878010241884
  O   -3.08963633437932     -0.52049349771129     -0.21434057301243
  O   -1.52764500386562     -0.76527422799966      1.39591446597350
  C   1.40959720898961      0.17662700288171     -0.23327693279352
  C   2.47756821046528     -0.01169605661779     -0.73378646956285
  C   0.11755582912459      0.39428462048500      0.38355431260202
  F   3.60679012552552     -0.21175864157143     -1.26476366126556
  F   0.03668455961780      1.64128718691867      0.90927312558435
  O   -0.09352059544558     -0.56942919839771      1.39160293894619
