22
Coordinates from ORCA-job orca
  C   2.74068357023095     -0.59005979823500      0.28588441120421
  C   1.75001526935622      0.50064841991199     -0.12636531405326
  C   0.36941513216447     -0.02087662709155     -0.55360500802244
  C   -0.33351934515760     -0.81831425380099      0.56829416246366
  C   -1.84830993705089     -0.84168985629236      0.34221251984820
  C   -2.39769106676066      0.60004110931798      0.37508437819231
  O   -1.39611433767526      1.56446375341019      0.06869509400840
  C   -0.55991494177377      1.13859281780045     -0.99547564094853
  H   3.71714707639557     -0.16240520634768      0.53365446159365
  H   2.89324226444356     -1.31401144116829     -0.52293615798176
  H   2.39434568551302     -1.14475105961881      1.16311362853012
  H   1.61347647743172      1.21194128484213      0.69946144797249
  H   2.17773395806934      1.07803350705936     -0.95635948191058
  H   0.50560512130273     -0.68654671900494     -1.41822508022601
  H   0.06379300802782     -1.83569688396554      0.62630619150364
  H   -0.12249028262978     -0.34143579318406      1.53355313036293
  H   -2.06561589233956     -1.31154963113641     -0.62457762866807
  H   -2.35277530467932     -1.44985394231798      1.09988689122773
  H   -2.75201801423930      0.86006965866099      1.37723717011945
  H   -3.24632069071352      0.70856759103462     -0.31957135919218
  H   0.02259162673526      2.01481107155161     -1.29534961632902
  H   -1.17327937665100      0.84002399857429     -1.86091919969494
