21
Coordinates from ORCA-job orca
  C   -3.16654371018664      0.41305272849804     -0.51404353979473
  C   -2.06030396073005     -0.51234033059578     -0.00093696630404
  C   -0.65328059001637     -0.03348897125671     -0.37135317939496
  C   0.45421299505917     -0.96251226184492      0.14095602759116
  C   1.87437834564657     -0.57019029511643     -0.28845339321844
  C   2.37160705482113      0.73070147099873      0.32828544695290
  O   3.72298259518653      0.91378689156073     -0.07801197289386
  H   -4.15860676452410      0.04460628456645     -0.23610382825789
  H   -3.13762329885204      0.49711589800385     -1.60566763812106
  H   -3.06069534131083      1.42302173374546     -0.10361408648681
  H   -2.21371374397674     -1.52373407476022     -0.39903161718504
  H   -2.13591344940976     -0.60438972053376      1.09031506603713
  H   -0.50799782486555      0.98064375696839      0.02203569036069
  H   -0.57534194361244      0.05298920494021     -1.46392104180800
  H   0.25159525523582     -1.98034254750317     -0.21427321000533
  H   0.40550232885166     -1.01457530023845      1.23741006277823
  H   1.92764570053993     -0.48375935042769     -1.38051262314520
  H   2.57754301761657     -1.36172698886025     -0.00642147641522
  H   2.29160746064637      0.67358657874870      1.42645611996806
  H   1.74932557143263      1.57719536920279      0.00185520727812
  H   4.04362130244816      1.74035892390406      0.29475695206429
