19
Coordinates from ORCA-job orca
  C   -1.51287501177504      1.47925808908275      0.43941799647984
  C   -0.58700034193976      0.51351758942650     -0.31127572676888
  C   -1.40702396042080     -0.42736208693084     -1.20480187925708
  C   0.29932710496150     -0.24947392804635      0.69220508733969
  C   1.40098836032821     -1.11537814104242      0.07506650308627
  C   2.55940540354340     -0.35068446583234     -0.52067634228896
  O   2.69657190691506      0.84750976794153     -0.48057379686964
  H   -2.13108396871702      2.05560191319126     -0.25603383668609
  H   -2.18853135232820      0.93525183844554      1.11026096955052
  H   -0.94086387289122      2.18848273223248      1.04551030099241
  H   0.07269324774979      1.11127273932035     -0.95118084191028
  H   -0.77592817811168     -1.07885397092467     -1.81656188565133
  H   -2.06381563317600     -1.06725230220168     -0.60334356065072
  H   -2.04059719568028      0.14302875203472     -1.89108649029014
  H   -0.34018286340822     -0.88670437321093      1.31643833507560
  H   0.77154224982862      0.47551292040217      1.36384457123688
  H   1.83975957445813     -1.78860391228586      0.82718321091484
  H   1.01730429012840     -1.79442159311509     -0.69825688900899
  H   3.33031024053513     -0.99070356848711     -1.00970372529395
