24
Coordinates from ORCA-job orca
  C   3.69805184004534      0.59082743103360     -0.37274533753858
  C   2.40168565967148     -0.19191061313632     -0.14960446362655
  C   1.21027902116532      0.40196526428896     -0.91074176299323
  C   -0.09980829898135     -0.38456597691386     -0.76994234460525
  C   -0.68250250397134     -0.40098207249575      0.64817489048733
  C   -2.05763702448940     -1.07224354310808      0.71888687487998
  O   -3.05002521718324     -0.44222502740472     -0.07651207753789
  C   -3.58541102584404      0.73278955271757      0.48848178854653
  H   3.59575086876189      1.62923809799075     -0.03915855996759
  H   3.97009651678525      0.61196819337631     -1.43363968688757
  H   4.53493987082538      0.14768923956010      0.17581458184773
  H   2.18145698187377     -0.22411249561380      0.92401765794195
  H   2.54417700604615     -1.23509741826814     -0.46141400572043
  H   1.05044446053957      1.43790776940260     -0.58040307055794
  H   1.47012687587272      0.46501297101150     -1.97551818314992
  H   0.05716286649400     -1.41897907384307     -1.10605328360160
  H   -0.85013052438955      0.04068695949449     -1.44537383908713
  H   -0.01867645196393     -0.93927061459367      1.33556927609532
  H   -0.74818763865907      0.62429851587820      1.03472298934026
  H   -2.39674067022434     -1.13241144245374      1.76569960245211
  H   -1.98664944683335     -2.09696923576112      0.33688677395051
  H   -2.84313820189770      1.53840541912454      0.58242675616441
  H   -4.01281398465563      0.54271973835754      1.48563161321890
  H   -4.38245097898794      1.07569736135611     -0.17520418965134
