21
Coordinates from ORCA-job orca
  C   -2.49019312230027     -0.33472720676714      0.20662546849755
  C   -0.99562559370946     -0.60220363862523      0.40805526343895
  C   -0.07985543207137      0.25723983853847     -0.48156137438438
  C   -0.09307652723118      1.74175544489066     -0.09366330747112
  C   1.36470316414459     -0.29317200474624     -0.55092292470462
  C   2.08791690651465     -0.38368234449511      0.78835829850621
  O   1.39063002242966     -1.61145687951659     -1.09948079245631
  H   -3.09482130515055     -0.99862986378981      0.83210083880253
  H   -2.78606642843478     -0.50369958930313     -0.83486805617098
  H   -2.76316130138398      0.69300463998993      0.46500723735010
  H   -0.78495251008488     -1.65604611267844      0.19636883258343
  H   -0.73758289961850     -0.43936551829589      1.46167030486950
  H   -0.46467865723525      0.18598920772346     -1.51253204520186
  H   0.59884166094111      2.32109441419104     -0.71448999837573
  H   0.19857213469106      1.88338060131138      0.95220694813819
  H   -1.08677551919766      2.17970871580881     -0.21873098206915
  H   1.93787015755797      0.38408236649175     -1.20644749892520
  H   2.15475366036678      0.59423585065376      1.27159338310806
  H   1.57453505092694     -1.07436768331624      1.46201576982786
  H   3.10254521643471     -0.75874011925893      0.63260001946691
  H   0.96642232241040     -1.58439911880651     -1.96390338482995
