20
Coordinates from ORCA-job orca
  C   0.93676442019142     -1.60829522753046      0.96002855564094
  C   0.20595202888519     -0.54361754913667      0.16596388648395
  C   1.04909581198930      0.64226475023755     -0.23191246786332
  C   1.79884290652140      1.43026854700118      0.75797982403258
  O   2.46733907693562      0.50235186310253     -0.09823509180035
  C   -0.91133520203059     -1.02446234122783     -0.68264517925139
  C   -1.62281574720223      0.08104723414847     -1.45712135134112
  C   -1.79285865828231      0.80005696905666     -0.09664480307038
  N   -1.18334484142294     -0.35364645522498      0.66373110139159
  H   0.23425362544588     -2.39012773399975      1.25629552468881
  H   1.37652631935416     -1.19186277475957      1.87044638420632
  H   1.74336238968671     -2.04810144197586      0.36899173604218
  H   0.75922805954086      1.15296294652909     -1.14783712356435
  H   2.00755529367606      2.48137429109178      0.56537896411952
  H   1.75615512654180      1.15009402171675      1.80879758903499
  H   -1.08075948020865     -2.08759822183190     -0.83111902997067
  H   -2.57580707177984     -0.25127642564022     -1.87178440492715
  H   -1.06186416040085      0.58140812713041     -2.25241546727819
  H   -1.27353718057792      1.75244890986533      0.04323377870781
  H   -2.83275271686307      0.92470751144750      0.20886657471822
