13
Coordinates from ORCA-job orca
  C   -1.69312758556661      0.39569952865475     -0.53325776669887
  C   -0.40102525930335      0.62346069963410      0.25736908724897
  C   0.47872993832317     -0.60224964022681      0.27883751112052
  C   1.94218575446688     -0.52843264485928      0.27708549867277
  O   1.22715057471711     -0.87907913886593     -0.91062106731938
  H   -2.28697165768642     -0.41537334729724     -0.09841501544275
  H   -2.31521147680092      1.29529033791065     -0.54276413664325
  H   -1.46819356053140      0.12744814783026     -1.56960667736672
  H   0.16508544588913      1.45398673569163     -0.17906429141978
  H   -0.63386911568729      0.90373011332622      1.29291348250924
  H   0.02221371673437     -1.49169543823987      0.72062673466278
  H   2.53150859519450     -1.32795109909136      0.72480724412473
  H   2.43152163025083      0.44516574553289      0.25741339655174
