21
Coordinates from ORCA-job orca
  C   -2.04767393311589     -0.30393270806268      1.41663834294224
  C   -1.05584730189763     -0.55422529366336      0.27165945270883
  C   -1.75302962266731     -0.37213202762092     -1.08373245113517
  C   0.18857974100371      0.33782858270321      0.44764602736672
  C   1.41054508805312     -0.02594313987432     -0.39904455048570
  C   2.68131859300352      0.65955159309599      0.10653248549689
  O   1.14139592931091      0.36384544807721     -1.74883661414923
  H   -2.40153289747469      0.73375382281577      1.40647220273161
  H   -1.59187448328316     -0.48999566870285      2.39492004950239
  H   -2.92599088958511     -0.95129888838742      1.32734025040182
  H   -0.72203060213679     -1.59982793711096      0.34456210729836
  H   -1.07243833337355     -0.55329934641821     -1.91611997670473
  H   -2.13329705770273      0.65123973043449     -1.18603544490964
  H   -2.60785909230950     -1.05150777436958     -1.17124196902688
  H   0.49569362952076      0.29291761912734      1.49972032523714
  H   -0.06854757972859      1.38592097434970      0.24344180229864
  H   1.55532749334186     -1.11858606101419     -0.35321260307542
  H   3.53801135416826      0.40833211507568     -0.52936152631827
  H   2.92212015333271      0.34514162340353      1.12698081711736
  H   2.55858717495938      1.74688328933034      0.09503852042858
  H   1.88854263658073      0.09533504681123     -2.29336624772556
