17
Coordinates from ORCA-job orca
  C   2.05337766070620     -0.39763637913810      0.15587456379796
  C   0.74811865594298     -0.36972388949370     -0.64842323612529
  C   -0.52710395606430     -0.19557112494205      0.19403552593170
  C   -1.77800033691892     -0.37473969619254     -0.67598023106349
  C   -0.56448860212717      1.15453098270882      0.92413705168173
  H   2.24876170542730      0.55651784441754      0.65268510855845
  H   2.90873757470856     -0.60863768806580     -0.49243402261519
  H   2.02360657369874     -1.17466419372937      0.92727799858630
  H   0.66318923379938     -1.30111702332901     -1.22130573859781
  H   0.79254557748620      0.43785669751742     -1.39194239785817
  H   -0.52988569326177     -0.98963897807432      0.95470736368369
  H   -2.69257949313279     -0.29291487230657     -0.08067032669378
  H   -1.78474143233920     -1.35232569533361     -1.16810520136201
  H   -1.82344959208713      0.39119575363685     -1.45871853514405
  H   -0.52486521920966      1.98411023903403      0.20856265449998
  H   0.27334181203562      1.27072454561200      1.61643972265381
  H   -1.48656246866406      1.26203347767841      1.50385970006618
