16
Coordinates from ORCA-job orca
  C   2.72069582329243      0.68201483537703      0.31124637116079
  C   1.39763238164814      0.76662214329264      0.41347383442600
  C   0.45095542803041     -0.40163176303004      0.40891007262016
  C   -0.56054922053372     -0.32310540845389     -0.72223479590538
  C   -1.83526834308505      0.46688103818982     -0.55934891310790
  C   -1.88171467902159     -1.04053292367029     -0.62218177574672
  H   3.22326428086620     -0.27782465179104      0.22756999409819
  H   3.35293733408774      1.56341987615813      0.31098223836232
  H   0.93034179435953      1.74790978421039      0.49134933273058
  H   -0.09725053872555     -0.43649286331627      1.36118324304279
  H   1.01899273759968     -1.33696718048844      0.33790617002366
  H   -0.11178459492332     -0.29159279146126     -1.71181950418231
  H   -2.20798960525116      1.03375321468045     -1.40495799340411
  H   -2.02025774423199      0.93504789657481      0.40230879989359
  H   -2.28534340584953     -1.51167912332044     -1.51123237622007
  H   -2.09466064826223     -1.57582208295159      0.29755030220840
