16
Coordinates from ORCA-job orca
  C   -2.42344055047056     -0.53320113115036     -0.00637865854639
  C   -1.21763365951165      0.10249509047934     -0.68936042764225
  N   -0.00883807917659     -0.08115788326103      0.10490740871992
  C   1.19067388414783      0.47889864877177     -0.50588189582323
  C   2.41834121316650      0.21863393915450      0.36002488735526
  H   -3.33701216895152     -0.36042169218222     -0.58293829744322
  H   -2.29509413570262     -1.61752185392766      0.09090444917248
  H   -2.55951958937216     -0.12061824808229      0.99724494421954
  H   -1.38074500942986      1.18248629161414     -0.80069155489550
  H   -1.11845267343676     -0.29616964416343     -1.71779513952867
  H   0.13300297138293     -1.07312289646105      0.27837636506891
  H   1.36824635094070      0.09548593805844     -1.52954425123493
  H   1.03454066976937      1.56031379950061     -0.61317275773800
  H   3.31161387290781      0.67295766427914     -0.07865527164739
  H   2.27458533117597      0.62714004612611      1.36426691117987
  H   2.60973157256062     -0.85619806875601      0.45905828878361
