16
Coordinates from ORCA-job orca
  C   -0.73193010614586      1.51290098896668      0.42229391881791
  C   0.04399144022413      0.26713497362455      0.04136780798398
  C   1.49419729326905      0.26599908345972      0.48151531396647
  C   -0.30024690093417     -0.40145192013741     -1.27932586689460
  C   -0.70501208380346     -1.03879388268035      0.02963901991531
  O   -0.03476210210517     -2.18315287952869      0.48056045877981
  H   -1.77757627672151      1.44942281582119      0.10639058624484
  H   -0.29700026182443      2.40248422912160     -0.04736517639321
  H   -0.71672197763701      1.66711741667788      1.50712053785959
  H   1.56997299798387      0.42753090135465      1.56256858114259
  H   2.04821789523373      1.06985552349735     -0.01586666398673
  H   1.97948771702279     -0.68431218261095      0.25370170319476
  H   -1.06565599924475      0.03318593927707     -1.91427899806463
  H   0.51334597145429     -0.87757789883671     -1.81778844856691
  H   -1.76154959408986     -0.99866499667611      0.29719359268309
  H   -0.25875801268164     -2.91168011133048     -0.10772736668227
