23
Coordinates from ORCA-job orca
  C   2.64708014639109     -0.63779593773098     -1.60038396910922
  C   2.37811415701954      0.55636275779373     -0.66496593509383
  C   3.21658811181369      0.45988645048564      0.62386002554180
  C   0.95107134643684      0.67552016265334     -0.36025522869096
  C   -0.22522395298201      0.75860665301688     -0.11200034233139
  C   -1.64787617918214      0.86377075715111      0.19518789419034
  C   -2.25128100702505     -0.42191503608335      0.78203434374178
  C   -3.68113671572018     -0.19669406769813      1.27504716263474
  O   -2.21160751980620     -1.39523574362899     -0.25508616629137
  H   2.07283919850991     -0.54699851820540     -2.52545647673999
  H   3.71021355161915     -0.69025169664509     -1.85644489694763
  H   2.36228657410182     -1.57692060512860     -1.11732841452741
  H   2.68253332341480      1.47046623110327     -1.19365262315137
  H   3.03935512187593      1.32131176807052      1.27244470894090
  H   4.28385550876447      0.42199854713930      0.38334819656836
  H   2.95911125998122     -0.44404254583516      1.18391838800049
  H   -1.81314972281280      1.68481929924018      0.90325996018589
  H   -2.21002325462618      1.11097491131252     -0.71455408091494
  H   -1.62104248389544     -0.74225721393049      1.62585701036473
  H   -4.10771602156232     -1.12989239906394      1.65802770599305
  H   -4.31706276797212      0.15495342094900      0.45678573517442
  H   -3.71086896936689      0.53925303175394      2.08499388347409
  H   -2.50605970497715     -2.23592122671929      0.10914711898749
