18
Coordinates from ORCA-job orca
  C   -2.36359156430125     -0.15767288267299      0.38593594288615
  C   -0.98680570470393     -0.80552039927846      0.55503156254600
  C   0.07244086691614     -0.21941870566971     -0.37323297341917
  C   0.56357590835369      1.22602065840316     -0.04521436483706
  C   2.01192938885534      0.69395791526395      0.14941862608529
  C   1.52591419512923     -0.74701708259204     -0.17585734082858
  H   -3.09780659460570     -0.58915274883212      1.07295728875843
  H   -2.74039618580973     -0.29476399284645     -0.63345133477299
  H   -2.32304081636138      0.91936385649321      0.57940561439375
  H   -1.06234871012524     -1.88598634744717      0.37390401595852
  H   -0.65176373532528     -0.69671795789131      1.59587622023189
  H   -0.27138816739823     -0.31677192864724     -1.40934476563902
  H   0.11199336940532      1.66060620093293      0.85178146165385
  H   0.44620877763876      1.94729425143085     -0.85769097110289
  H   2.41250493165989      0.82294500829514      1.15779506037853
  H   2.74506701615318      1.09841879649714     -0.55239827485459
  H   1.63167271019886     -1.46393715449942      0.64381992708379
  H   1.97583531432033     -1.19164648693945     -1.06705169452191
