15
Coordinates from ORCA-job orca
  C   1.97291678647344      0.31095246316301     -0.24817478110953
  C   0.53403589617447     -0.05922712502548     -0.52809427492907
  C   -0.08505634219309     -1.27362365911991      0.12156860616277
  C   -0.53062985123211      0.11144249864107      0.52464021168055
  C   -1.91156567436871      0.60744115948150      0.16036308208067
  H   2.23685736446195      0.09865093821825      0.79377748754059
  H   2.66470315927622     -0.25363737792579     -0.88345078502956
  H   2.15622638444481      1.37697518161637     -0.42360078245688
  H   0.21346323359355      0.14105443009629     -1.54914249836633
  H   0.52548182270891     -1.84503496662863      0.81427936988015
  H   -0.77406429222464     -1.87905045507053     -0.45977794276834
  H   -0.17436847655508      0.45540083292224      1.49420087709623
  H   -2.66492940222222      0.26518917542710      0.87881815691323
  H   -1.95260992476000      1.70213317695410      0.13262387343276
  H   -2.21045868357752      0.24133472725042     -0.82803160012724
