25
Coordinates from ORCA-job orca
  C   5.29690980378013      0.09364605858140      1.62092439408886
  C   4.04955684325768      0.99413393629904      1.59492638868593
  C   2.89329479879787      0.35482547080560      0.98028303796381
  C   1.94938464192907     -0.19242753838730      0.46810012408374
  C   0.83132087841556     -0.85009436479806     -0.14262983106577
  N   0.93655222017878     -2.02433485530997     -0.62304011550945
  O   -0.26932044639142     -0.04136181086463     -0.10817487846513
  C   -1.47692885351203     -0.54065490332837     -0.67771437357218
  C   -2.53960019327790      0.53752396291592     -0.51085734809280
  C   -3.85476010194325      0.10690750607353     -1.11065698672399
  C   -5.14399233374916      0.46229012612445     -0.51150539113819
  O   -4.61101197143512     -0.85637653151374     -0.36915710709475
  H   5.10435039121599     -0.82040137136467      2.18750321411570
  H   5.59017627315794     -0.19323832980827      0.60839708510397
  H   6.13407763103402      0.61997407638499      2.08779891372182
  H   3.78712288329516      1.29809074528867      2.61604082190457
  H   4.27117843918955      1.92271931831589      1.05390598184042
  H   0.06139967761884     -2.36381579533646     -1.01837575939275
  H   -1.78578677014092     -1.46153400356182     -0.16668137794115
  H   -1.31985551966791     -0.77520906848513     -1.74018337279647
  H   -2.67073149413896      0.75007445832810      0.55433751539262
  H   -2.19888708396011      1.45996826507978     -0.99491776965102
  H   -3.83743285893205     -0.08533414023601     -2.18579766520224
  H   -6.03069937624830      0.54611981017049     -1.13794384129991
  H   -5.16631847847347      1.05850797862658      0.39976634104434
