18
Coordinates from ORCA-job orca
  C   -1.09449895434181     -0.97435435579790      0.78967775182937
  C   -0.60779089957669     -0.11123592958116     -0.38287808215268
  C   -1.54664377814494      1.08100304390543     -0.61284238204130
  C   0.84242456286176      0.37430488898146     -0.20557175301112
  C   1.87477689606732     -0.75262037904619     -0.15340665715119
  O   0.88150103309949      1.16056649362317      0.98620411167719
  H   -0.50831191023168     -1.89125563154429      0.89743283790939
  H   -1.03128473398626     -0.41953446501028      1.72941553015493
  H   -2.13718130842556     -1.26979192816492      0.63791963760231
  H   -0.61195530640995     -0.72728965484502     -1.29254587875806
  H   -2.57433115361821      0.74330278443695     -0.77870741215265
  H   -1.54226332860331      1.74860712845424      0.25304903550970
  H   -1.24143869731462      1.66425011765784     -1.48820271111546
  H   1.07689696011457      1.01375415166541     -1.07339854704765
  H   1.71418822465899     -1.39450373370114      0.71621292826434
  H   1.83286917319892     -1.36814285506389     -1.05779215970243
  H   2.88810236963180     -0.34029343900401     -0.08388924386700
  H   1.78493885102017      1.46323376303430      1.11932399405231
