21
Coordinates from ORCA-job orca
  C   3.14720545159780      0.33705665876054      0.75892929987351
  C   2.27252002866040     -0.90938820278653      0.60301284318475
  C   0.99358859700450     -0.65114665821565     -0.18432161894540
  O   0.19521320545992      0.26645097297875      0.54090400721106
  C   -0.92857329217869      0.76697596406724     -0.15685578126314
  C   -2.08802873317835     -0.22484627035787     -0.28283069755323
  C   -3.31464658600960      0.42518879340299     -0.92880581779573
  H   3.48585962839952      0.70522656312617     -0.21573011451708
  H   4.03562210943582      0.12478499742693      1.36096866420839
  H   2.58896199568009      1.14059136703123      1.24511935269351
  H   1.99600347075931     -1.30035740401403      1.58900748766987
  H   2.83030020928496     -1.70479743681798      0.09418201247259
  H   1.23258666685794     -0.23701195164571     -1.17946526098319
  H   0.45757348339114     -1.59872218446901     -0.34643559895026
  H   -1.26241665814361      1.64279101354656      0.41115286145197
  H   -0.62919550689809      1.12253338436277     -1.15753210461122
  H   -1.77817507368483     -1.09302662314360     -0.87514722006403
  H   -2.33616329049065     -0.59801569432302      0.71736133938853
  H   -4.14372417071306     -0.28284103373926     -1.01132034592554
  H   -3.66604343627868      1.28010532366128     -0.34126312610678
  H   -3.08846909895583      0.78844942114820     -1.93702418143859
