22
Coordinates from ORCA-job orca
  C   -2.21890243136905     -0.89337662866634     -0.11049458415830
  C   -1.01367543281732      0.05862804136390     -0.02356856694663
  C   -1.33167991307254      1.21122725921335      0.94467230930712
  C   -0.69194804825333      0.61412123263992     -1.42207903417678
  C   0.17192813847126     -0.75790552444716      0.50553345023396
  O   1.32874986240571      0.08533931701584      0.57606503746272
  N   2.33080334141219     -0.55910388161123      1.30351607556852
  C   3.58496773275452     -0.00354802414312      0.88127587286031
  O   3.25749316971744     -1.23922940860155      0.32014825053770
  H   -3.09800346651262     -0.36259816635984     -0.48931246538778
  H   -2.47610694557781     -1.30503797997609      0.87129591932112
  H   -2.01982749104786     -1.73160252810624     -0.78665441403166
  H   -1.58819232456631      0.82983190724032      1.93895400247689
  H   -0.47672663536062      1.88339889933414      1.05256928367266
  H   -2.18277437647031      1.79585497483809      0.58095519022509
  H   0.17440140577287      1.27962623857948     -1.39426347696610
  H   -1.54353140667574      1.17858352038260     -1.81561896255736
  H   -0.47189250082017     -0.19488578730520     -2.12682168772298
  H   -0.03963378315740     -1.15368870890967      1.50632705144729
  H   0.39094892553763     -1.60243379040223     -0.16081355338372
  H   4.37570784010041      0.00596160780311      1.63290668570506
  H   3.53789233952906      0.86083543011791      0.21868561651286
