16
Coordinates from ORCA-job orca
  C   1.86585455660224      0.44747297322194      0.12855224320097
  C   0.43226581240811      0.00274266439825      0.16799567080686
  C   -0.73038553359168      0.87313029580708      0.67540899649165
  C   -1.64535031043463      0.29300289911531     -0.45411323268792
  C   -0.47284650501870     -0.56860724127505     -0.93218465083361
  C   0.01278947166189     -1.44081893777804      0.19584696150430
  H   1.96470982109020      1.43536299176710     -0.33513683039356
  H   2.48531821391159     -0.25397212608319     -0.43919411850755
  H   2.28618517769273      0.51411931447620      1.13957090011550
  H   -1.04431333766094      0.70123862994356      1.71053165372931
  H   -0.54304246883262      1.94161689501440      0.54261992507760
  H   -1.94286200129063      1.05695792526792     -1.17536202139576
  H   -2.54015667321613     -0.25134191403822     -0.13418469301597
  H   -0.23456304652871     -0.79604069135058     -1.96548675484843
  H   0.79163705704789     -2.14832836802223     -0.07198416332792
  H   -0.68524023384062     -1.80653531046446      0.94711711408452
