17
Coordinates from ORCA-job orca
  C   -2.16023828140074      0.62932377854967     -0.24410050949925
  C   -1.64017737477714     -0.29864866946523      0.85764141077566
  C   -0.27934579407379     -0.90675217794673      0.54454369693775
  O   0.66090110894912      0.15821118639115      0.47348414049420
  N   1.94745767756878     -0.35984012384933      0.09757357132329
  C   2.40849816942498      0.42887478097359     -1.03970099222664
  H   -3.13866898070662      1.04342306666285      0.01641825535923
  H   -2.26748189823704      0.09129475335359     -1.19234217411035
  H   -1.47054443786820      1.46057375772864     -0.40863620927233
  H   -2.34264623331884     -1.12464872370193      1.02114528892275
  H   -1.57120233222255      0.24654096887572      1.80612996972039
  H   0.01872564242689     -1.62181140188926      1.32459607111135
  H   -0.30166117573002     -1.45246517266985     -0.40997974051854
  H   2.53047677478944     -0.13622601559157      0.90294266424974
  H   1.79492508800456      0.19131100704016     -1.91220632454667
  H   3.44216453488381      0.13698222243646     -1.25156493101688
  H   2.36881651228737      1.51385476310208     -0.86880018770369
