24
Coordinates from ORCA-job orca
  C   -2.68175187419548      1.27492583602866      1.78888934200409
  O   -1.56067693837819      0.42439373361948      1.66227882915042
  C   -0.87759326775763      0.59670814849064      0.46783970299254
  C   -1.36894061658617     -0.09194305357292     -0.79630629682556
  N   -1.23789376632000      0.60717358170579     -2.04856867269703
  C   -0.12831724152332     -0.59388760399731     -0.09116197882967
  O   -0.30320048543770     -1.83021975133370      0.53225709800155
  C   1.25461389867311     -0.38771460245365     -0.68489685856595
  C   2.28965214725894     -0.16535042864964      0.39729896061270
  C   3.51062971092270     -0.97023442593137      0.51416985377757
  O   2.40667779269060     -1.19935389070350      1.39612316026018
  H   -3.41824573611152      1.09668621317490      0.99198134674531
  H   -2.39209729909950      2.33645515042560      1.76213416083788
  H   -3.14378180394979      1.05927216473690      2.75431718499331
  H   -0.42854589510863      1.58328226962180      0.32711485720899
  H   -2.22359995503461     -0.74952517209578     -0.62317369146654
  H   -2.00460967371757      1.25913724320217     -2.18039642804650
  H   -1.25901458485289     -0.03973509321252     -2.83096013296617
  H   0.41224065959115     -1.92695862717624      1.17614619106242
  H   1.24433061925061      0.46970485408710     -1.36426544795473
  H   1.50702429609656     -1.27636303457659     -1.27452145909347
  H   2.30433949461090      0.83606952306198      0.82806128196129
  H   4.39798090556522     -0.55309720222625      0.98692326021410
  H   3.70077961341322     -1.75942683222553     -0.21138326337675
