22
Coordinates from ORCA-job orca
  C   3.24785134003663     -0.30028285489201      0.68903020304778
  C   2.58075278979761      0.03998439497735     -0.64765753425193
  C   1.18025779682116      0.65591217863279     -0.52152011406626
  C   0.12137403863428     -0.29007143073543      0.06249100003687
  C   -1.24947481163872      0.33944556226014      0.08252433642871
  O   -1.92082963053607      0.45734097885892     -1.18150678123234
  C   -2.48478299759015     -0.40637620370523     -0.18530757854322
  C   -3.82175194839797     -0.00713717359780      0.38240933588358
  H   4.26196108274730     -0.68213596681657      0.53670866948496
  H   2.69335366812109     -1.06439635817353      1.24231057206864
  H   3.32090244155734      0.58519843257949      1.33012528005851
  H   3.22040628462224      0.74138929738650     -1.19647389832256
  H   2.52192122895651     -0.86297131818557     -1.26924089348376
  H   0.83942827125033      0.97750150564834     -1.51227945809587
  H   1.23576186190709      1.56421367562869      0.09415787348103
  H   0.38356547483918     -0.57918573446037      1.08792679758166
  H   0.08282920794844     -1.21122937093245     -0.53118635243485
  H   -1.33686037289713      1.23622901889933      0.70166759360387
  H   -2.37919852599418     -1.46719915566974     -0.42289048443394
  H   -4.01650765890556     -0.54620479436235      1.31585842934945
  H   -3.85300599202206      1.06630437584783      0.58518253660165
  H   -4.62795654925735     -0.24633005918832     -0.31822553276198
