25
Coordinates from ORCA-job orca
  C   -4.46557410090166     -0.13059368563112     -0.31057557159351
  C   -3.19271029454867     -0.46409911994954     -0.48957025646241
  O   -2.19039253397481      0.06052125258372      0.27646506855761
  C   -0.90425390242154     -0.43654470694333      0.03357080890182
  C   0.02779505816192      0.12781642765160      1.09518126825931
  C   1.49472674937635     -0.26714507400030      0.83225307632560
  C   2.48669589242199      0.92081537854243      0.99241999390703
  C   2.36395688484420      1.17988406279920     -0.53422082895733
  C   1.85038241815525     -0.27677521137897     -0.68966684910971
  C   0.72196829948870     -0.60803493475529     -1.65351271390245
  O   -0.50757399062259     -0.01219353847974     -1.25727919400490
  H   -4.76430645675129      0.57977522853596      0.45080592742626
  H   -5.23085500669912     -0.56541482774963     -0.93874242407109
  H   -2.86912462759807     -1.15913460229827     -1.25962548791280
  H   -0.91594170851951     -1.54371471668064      0.05353014524340
  H   -0.29469781792642     -0.20779061709915      2.08500599785212
  H   -0.09745363393556      1.21482925051047      1.06488856236820
  H   1.74295886856355     -1.18227616201988      1.37726033785603
  H   2.19579541235726      1.72346861342542      1.67493752125192
  H   3.48823922108316      0.57629088399044      1.26329291803327
  H   1.57610477496017      1.90260592336821     -0.76256248226821
  H   3.26684804628478      1.45964920408875     -1.08160966224951
  H   2.69139019174107     -0.95363179387608     -0.87371542082753
  H   0.92943358635116     -0.23583161668625     -2.66126495997042
  H   0.59658867010970     -1.70247561794800     -1.71950977465271
