20
Coordinates from ORCA-job orca
  C   -3.53798559671254      0.08909215954030      0.14376949323090
  C   -2.07675820746042      0.05368397451410     -0.30751038184933
  C   -1.12968599609108     -0.39466964295331      0.82466207772542
  C   0.29482046161628     -0.47661373699079      0.36892424176052
  O   0.52101298628245     -1.49475229014602     -0.46371358035685
  N   1.17563899289343      0.39343601481825      0.75482302456367
  C   2.44127221371413      0.26999459514834      0.27338769274243
  C   3.72447519741800      1.01083535460019      0.44951065437502
  N   2.97661347591466     -0.59156096237377     -0.54977510788308
  H   -4.19124087251754      0.42154105303300     -0.66798286481325
  H   -3.87836219577109     -0.90204397383955      0.46105670879032
  H   -3.67823527849992      0.77422351678692      0.98618167806207
  H   -1.96251829726653     -0.62653828589140     -1.15751670238583
  H   -1.76871287333309      1.04658346465737     -0.65451281219670
  H   -1.17879856258599      0.30361093747858      1.66215466822164
  H   -1.43778520616908     -1.38488592874802      1.17971581075611
  H   1.45773979997482     -1.49924142473388     -0.76664305129073
  O   4.27787305512645      0.02227406946272     -0.47616963373783
  H   4.19719189845160      0.96063304773618      1.43367573723906
  H   3.77344400501547      2.02439805790078      0.04347034704642
