19
Coordinates from ORCA-job orca
  C   -2.11713029091408     -0.06029493743577      0.43356279149323
  C   -0.63758469435093     -0.35459366907429      0.58564713209555
  N   -0.10758832672693     -1.48131574033037     -0.22860106040714
  C   1.18493442325878     -0.79454637267148     -0.43123902033725
  C   2.21976482171566     -1.13089481981076      0.54728734156494
  N   3.00090873732236     -1.39179795906500      1.36159313616412
  C   0.45133951643011      0.56374670642583     -0.06493351142556
  C   0.01377821181369      1.32027815727692     -1.30529090631536
  O   1.11432078680294      1.46991227300893      0.76370358957241
  H   -2.39869833169406      0.03180854905892     -0.61770827032517
  H   -2.71529697763273     -0.86497477343670      0.87309485293213
  H   -2.37708657156252      0.86748839174250      0.95330843925612
  H   -0.39044491388329     -0.46026896128910      1.65435482340570
  H   -0.05617997326545     -2.38546909004709      0.22850106576970
  H   1.59767105906461     -0.87882847611226     -1.44139752077572
  H   0.88618033457771      1.77275659052670     -1.78407316893156
  H   -0.47747807711499      0.65400763893279     -2.01716373995363
  H   -0.67806425910816      2.12102706964661     -1.03202844098312
  H   1.48665652526730      1.00195842265361      1.52138246720060
