22
Coordinates from ORCA-job orca
  C   3.48398232950907      0.53778207249036      0.17404023355129
  O   2.12269330820205      0.39661588417759     -0.15339766958168
  C   1.61109758967214     -0.89166650245905      0.12618870820641
  C   0.13340787866595     -0.92011931052630     -0.23849340306004
  C   -0.70866672996515      0.04284634335360      0.60500049348289
  C   -2.21422923709027     -0.00591608502576      0.31871925381942
  C   -2.58626693805700      0.47347605898869     -1.08529501703825
  O   -2.93611498953198      0.72509335127311      1.30954353508745
  H   3.77949203750267      1.55728822933831     -0.08233771349519
  H   4.11506105871564     -0.16755743936009     -0.38943531179271
  H   3.66583938578889      0.37362809510816      1.24776570495560
  H   1.74958207404730     -1.13217269857936      1.19493793265908
  H   2.16486751840597     -1.65254968164366     -0.44913105014030
  H   -0.22910382936291     -1.94793636993274     -0.10887760132905
  H   0.04080582426161     -0.68165323899478     -1.30354264325988
  H   -0.56887956775004     -0.18422676112324      1.66873187474485
  H   -0.34485186644898      1.06684329603518      0.45126126602296
  H   -2.56260611459039     -1.03903935254882      0.44363080280782
  H   -3.67327842557383      0.48242162616984     -1.19910704356831
  H   -2.16450409851114     -0.17232182123436     -1.86080633810279
  H   -2.21392485208145      1.49078994918998     -1.25769127345324
  H   -2.66440135580816      1.64837535530334      1.25187925948366
