17
Coordinates from ORCA-job orca
  C   -2.60316309337600      0.40031161975206     -0.17450938585229
  O   -1.48485489880259      0.63355745153648      0.65320645395586
  C   -0.38528447432970     -0.18064309650968      0.34759373084307
  C   0.48337303690019      0.16742825970640     -0.89927524853446
  C   1.73586267496296     -0.08242339518848     -0.01039245513621
  O   2.79970318741453      0.84076374370055     -0.06042267594998
  C   0.84599416155734      0.06779964269816      1.24022717830431
  H   -2.38306343328925      0.60933668000947     -1.23186733143562
  H   -2.95574094193733     -0.63973375707907     -0.09525923791541
  H   -3.39904500056968      1.07002524520029      0.15707754673780
  H   -0.68727268448015     -1.23950182367445      0.33915989084666
  H   0.36436915592781     -0.42150635636056     -1.81124855085254
  H   0.39812026712074      1.23460925220464     -1.12354622400215
  H   2.10202966792456     -1.11248355080331     -0.12216412557114
  H   3.29636440373641      0.69345826123927     -0.87212470509553
  H   1.01883705517261     -0.59337250518958      2.09052270778144
  H   0.85377191606758      1.10881732875781      1.57301943187618
