15
Coordinates from ORCA-job orca
  C   -1.71560487266619      0.20254762784516      0.23596005479044
  C   -0.76678214608247     -0.91829991384958     -0.20239034537026
  C   0.49014180366553     -0.46028543015907     -0.95839654016991
  C   1.52767227311190      0.28678965408774     -0.12820333023671
  O   1.03509097072792      1.58868858315991      0.17867630269294
  H   -2.61438527981486     -0.21050984797130      0.70524116692380
  H   -1.23534406737250      0.88251340985707      0.94151436766951
  H   -2.03412904025883      0.80302488607733     -0.62301020194375
  H   -1.31453536237276     -1.61790651318542     -0.84566947912735
  H   -0.45692311203312     -1.50311535177071      0.67455946233488
  H   0.20817036688724      0.17616056395175     -1.80697081039420
  H   0.98916519345059     -1.34078298307936     -1.38196171645245
  H   2.46945171159071      0.35573515410638     -0.69386842834871
  H   1.74356784126835     -0.27876550615132      0.79308877531079
  H   1.67444471989849      2.03420766708142      0.74253472232097
