7
Coordinates from ORCA-job orca
  C   -0.73279718828772     -0.00658832873549     -0.04878280505585
  C   0.73300780462103      0.01291674225175     -0.04432070423442
  O   -0.00253875556541     -0.07876047830920      1.17494580790753
  H   -1.25840489868797     -0.91593957283303     -0.33619220102509
  H   -1.28370329059751      0.91828230230308     -0.21240510432811
  H   1.28438966938973     -0.88206654553381     -0.32851830084724
  H   1.26004565912785      0.95215588085671     -0.20472769241682
