24
Coordinates from ORCA-job orca
  C   -3.83462739672796     -0.07964547887667     -0.54560487144360
  C   -2.55003685735269      0.37344521317804      0.15207598147509
  C   -1.29954978702396     -0.34502067655780     -0.36403743974786
  C   -0.00884514818948      0.11110441564911      0.32437263668749
  C   1.23819398989291     -0.61105370421188     -0.19615795216694
  C   2.53915305660364     -0.26249520769976      0.53993382732631
  C   2.97849176220623      1.18448090705733      0.35463780523056
  O   3.62001027084138     -1.06108211055299      0.05931060323493
  H   -4.71106690704175      0.44520026382291     -0.15323753562959
  H   -4.00207927990633     -1.15352086510538     -0.40904625359592
  H   -3.78836662500047      0.11144995374351     -1.62317105657255
  H   -2.64144601731878      0.20860411546009      1.23356533496519
  H   -2.42480662384348      1.45625418990320      0.02208231104286
  H   -1.21011790091295     -0.18506410844385     -1.44717762642287
  H   -1.42150652335134     -1.42857198479176     -0.22926332042179
  H   -0.09962990252016     -0.05079951162094      1.40740926165796
  H   0.10359102611256      1.19356084222582      0.18815001145510
  H   1.37810927841819     -0.40942873817800     -1.26575939524923
  H   1.08029667358109     -1.69611728304785     -0.10619665114566
  H   2.39128103416457     -0.45109936414293      1.61757257664537
  H   2.23958781436912      1.88260805892272      0.75524123953110
  H   3.92694549763394      1.35500094482588      0.87044000782069
  H   3.12542318401566      1.39928743961846     -0.70862767866532
  H   3.37099438135006     -1.98709531117728      0.14837518398869
