25
Coordinates from ORCA-job orca
  C   -3.24242539803253      0.15716993849883     -0.51853792060545
  C   -2.21587216013192      0.01082127123903      0.62082066521293
  C   -2.10266910168282      1.30871634479152      1.44346562873088
  C   -0.90865390347804     -0.39878299512138      0.10384729408180
  C   0.16788530932009     -0.73214078028651     -0.32533977618064
  C   1.47706956838651     -1.15381764307592     -0.84007237300527
  C   1.68419725149290     -2.66313652320551     -0.72396745454146
  O   2.56136449891007     -0.54105038502092     -0.13427692346505
  C   2.64559768166315      0.83055693048955     -0.31124608107975
  C   2.30264432363439      1.75053337599880      0.77754600814009
  O   3.66751870392564      1.43311366117579      0.41707478592617
  H   -2.93788788831009      0.94596905921317     -1.21258629312803
  H   -4.22438148552736      0.41753948980346     -0.11181785829730
  H   -3.33897901418281     -0.77299006197822     -1.08376130380901
  H   -2.56957358025701     -0.78253340660680      1.29350612552707
  H   -1.75862589841866      2.13495385235501      0.81438782937482
  H   -1.39552729669256      1.19108500441173      2.26823158557652
  H   -3.07744797797151      1.57839641993895      1.86122627861973
  H   1.54190199416282     -0.86352182786272     -1.90194808820431
  H   2.65877762478883     -2.93365917161569     -1.13702942210538
  H   0.90151843046688     -3.19514299900804     -1.26915893224091
  H   1.64902512150174     -2.96298908858989      0.32554920254804
  H   2.54977238360229      1.14344894392934     -1.35621710239075
  H   1.99202750193101      2.77358572375033      0.57352939667211
  H   1.97274131089900      1.32387486677608      1.72135372864314
