16
Coordinates from ORCA-job orca
  O   1.33202962702521      2.68969488174914      0.56890793271653
  N   1.46557286551335      1.50099067918268      0.70436065036936
  C   0.52517705287213      0.68588486579557     -0.08792120994763
  C   1.25898314293810     -0.41624127149812     -0.86734298783611
  O   0.34877895361717     -1.50701343802973     -0.90921742991073
  C   -0.29657015342837     -1.55276797243818      0.35705522243497
  C   -0.54438457532790     -0.09319075975945      0.73599967567556
  C   -1.53432121915905      0.69558471534698     -0.14777772437886
  O   -0.45750817504243      1.37861600526081     -0.83781393502541
  H   1.48447822505412     -0.11069849764620     -1.89057181534021
  H   2.18672496070763     -0.68318601008519     -0.33997331130873
  H   0.34295110578316     -2.03867389056904      1.11015803646945
  H   -1.21419364582956     -2.13752562261386      0.24801494231676
  H   -0.59073812578004      0.09878098327470      1.80770029206043
  H   -2.17753247189373      1.40353975228659      0.38398368764520
  H   -2.12944656704978      0.08620657974331     -0.83556302594059
