19
Coordinates from ORCA-job orca
  C   2.40343270386654      0.47237069423456      0.31637333085713
  C   1.55800783703707     -0.70415265783202     -0.18786406936915
  C   0.28265666527758     -0.23963275176171     -0.84870831337154
  O   -0.73532114087175     -1.21634359251368     -1.10520848545821
  C   -1.04187084017117     -0.13693896094433     -0.20098876333586
  C   -2.04208309430501      0.86088692036551     -0.74596758885087
  C   -1.27049652965652     -0.54079737016965      1.23896868079926
  H   1.86825594391955      1.04451680835278      1.08074690517315
  H   2.65492305249898      1.16031298570488     -0.49738192190249
  H   3.34135167201369      0.12214282956994      0.75555716046915
  H   1.33082208817323     -1.38858774320181      0.63302316376084
  H   2.12993916466355     -1.28480727651415     -0.92223987048799
  H   0.45267880108119      0.44031735935479     -1.68899270053320
  H   -3.05786181068796      0.45663575798460     -0.68301048351316
  H   -1.82986448917136      1.08848945437877     -1.79283708260128
  H   -2.01634608539272      1.79345708033013     -0.17254725450915
  H   -1.17663391974886      0.32354790337258      1.90456577598511
  H   -2.28302043575036     -0.94123634486100      1.35613238871915
  H   -0.56856858277567     -1.31018209585019      1.56037912816911
