15
Coordinates from ORCA-job orca
  C   -2.31765303521474      0.42002597274977      0.79834131570744
  C   -1.21973359127614     -0.30341678618329      0.03642339342914
  O   0.02967305273948      0.22138823195192      0.43560565390904
  C   1.12875649401845     -0.38199093842940     -0.21514590880115
  C   2.40808496283173      0.26056084105736      0.29425754359920
  H   -2.29125009554070      1.49183109095497      0.58626802819103
  H   -2.19449139143429      0.28091142185980      1.87534191856882
  H   -3.29777444728336      0.03162908611266      0.50715807861811
  H   -1.25918057963503     -1.38715035173595      0.23844488886631
  H   -1.35566272275721     -0.17631434977441     -1.05085895992685
  H   1.13723079585148     -1.46759470363542     -0.01975059113494
  H   1.04085420962509     -0.25488225255460     -1.30737571744961
  H   2.50468617883071      0.12167512166862      1.37397736085171
  H   2.40942435715442      1.33332756281159      0.08546491209707
  H   3.27703581209012     -0.19000094685363     -0.19379491652534
