25
Coordinates from ORCA-job orca
  C   -1.80292542553339      0.58693450170095     -2.05705705638760
  C   -0.45840108110997      0.20214571460659     -1.42861789610078
  C   -0.49319124658716     -0.27051477975604      0.04780575341419
  C   -1.40940513139427     -1.49998789337611      0.19371446202467
  C   -0.99948096719640      0.85070479018764      0.97418639296862
  C   0.93157128926627     -0.71169569549362      0.47724817369476
  C   1.99752939485419      0.35780570555483      0.48912854055391
  C   3.13251959503875      0.30455380394827      1.41711454176902
  O   2.05552198110814      1.21632582067056      1.63737959623477
  H   -2.49752572242412     -0.25709038585738     -2.08924796947166
  H   -2.29084753747796      1.40187892377376     -1.51457790349709
  H   -1.65569788955470      0.92559983311486     -3.08728959309698
  H   -0.00289515313396     -0.59391153889460     -2.03319092327400
  H   0.21459519365925      1.06406341889233     -1.50720553645065
  H   -2.44926517194456     -1.25897922144650     -0.04324292784255
  H   -1.09327478048910     -2.31398118852861     -0.46858523059460
  H   -1.38820583091230     -1.87890291949418      1.22102588572978
  H   -2.04294557831607      1.10005393698869      0.76023697303100
  H   -0.94143580137000      0.54339211710987      2.02309022788784
  H   -0.40417982878127      1.76207362189246      0.87130317316247
  H   0.87877397555705     -1.14089184706822      1.48527455070697
  H   1.26785673946155     -1.51682419410363     -0.19090902666848
  H   2.16264053300016      0.88457610359697     -0.45132794933252
  H   4.08432768904921      0.75764497984453      1.14184351201728
  H   3.20434075523065     -0.51497460786342      2.13189922952161
