16
Coordinates from ORCA-job orca
  C   2.60632332616316     -0.03078089542356     -0.72513878852637
  C   1.10859261316893      0.05431169061266     -0.56036565912301
  C   0.44608820583263     -0.28191365470257      0.54807490524983
  C   -1.02198400731253     -0.22080819716492      0.77002324188765
  C   -2.00854766801147     -0.52192058893389     -0.34405317206972
  C   -1.87349637264587      0.88055212683340      0.16408553967543
  H   3.13256610016007      0.59145579524163      0.00757108807494
  H   2.97235651324567     -1.05593297980341     -0.59805656950985
  H   2.91741559432058      0.30400539929014     -1.71784374073532
  H   0.55259274064613      0.41940265775740     -1.42301317467384
  H   1.02153981945040     -0.64482166738241      1.39969145110503
  H   -1.32612836809781     -0.54962318683294      1.75884055667468
  H   -1.58636732970784     -0.76579462311070     -1.31328430379241
  H   -2.90558798735742     -1.07778851153349     -0.09216126033519
  H   -2.67762021525195      1.29088617146313      0.76591896285526
  H   -1.35774296460267      1.60877246368952     -0.45286007675713
