17
Coordinates from ORCA-job orca
  N   -1.14671165152126      0.90482357563378     -1.50481935193503
  C   -0.81727320593650      0.37396899599334     -0.22290364843907
  O   -1.21830023366070      1.27480622878790      0.80137868027551
  C   -1.28026977592589     -1.10248561141189      0.04441683981155
  C   0.18012505111330     -1.48601148371997      0.29726049884346
  N   0.90241623985606     -1.21239222609298     -0.95313540141389
  C   0.65685555168842     -0.08977872711300     -0.00628394697006
  C   1.70422027832672      0.67033663274080      0.57357433843873
  C   2.58701948896153      1.32871261510985      1.06255589831903
  H   -2.15482913324067      0.90440513167358     -1.62919840029137
  H   -0.84153441581434      1.87274029993152     -1.56131716804982
  H   -0.72074902756645      1.08638160929495      1.60676934284957
  H   -1.74579432922569     -1.61923679770381     -0.79717877498335
  H   -1.91703608274159     -1.15013472129375      0.92938774271678
  H   0.57157937777481     -2.17737212199823      1.03343667693467
  H   1.87571587318643     -1.49032232586377     -0.82282690171610
  H   3.36456399472583      1.91155992603167      1.49398257560939
