25
Coordinates from ORCA-job orca
  O   3.72542671622087      0.70614459416521     -0.61139843951809
  C   2.70141800130910      0.58965669358973      0.02030095809924
  C   1.91514577768882      1.83894855477272      0.49034169732146
  C   0.52720980415093      1.72278804244296     -0.06377977201703
  N   -0.36161112926415      1.06620552328180      0.55821074604814
  C   -1.49402913762326      0.59990456105257     -0.19861450848805
  C   -2.75519662951076      0.23059490560341      0.62433443174143
  C   -2.56563172639644     -1.27375441684135      0.27192001285112
  C   -1.30918601176145     -0.93552750515151     -0.56164364941275
  O   -0.16767434289211     -1.57845938041856     -0.04656916675464
  C   1.08197429676299     -1.31104028400216     -0.67255353398773
  C   2.12232591921160     -0.78120407162471      0.36410070198949
  H   1.87685984438981      1.82481985594215      1.58418354207111
  H   2.44901677746748      2.72339202536238      0.13954026231084
  H   0.38021136266621      2.07579719859692     -1.09842543634870
  H   -1.69463666994888      1.21636692057055     -1.08801347893601
  H   -3.67999081169845      0.68293214565477      0.26145601558710
  H   -2.64399252253519      0.46156458691654      1.68481589188397
  H   -2.32039957305152     -1.90826916004536      1.12510542910982
  H   -3.37794512208141     -1.73904931394594     -0.28963176834173
  H   -1.40888252025166     -1.12164051145874     -1.64023692924950
  H   0.96246883221529     -0.61310493809270     -1.50884670875508
  H   1.45085254291704     -2.25192830739857     -1.09684418482087
  H   1.61672037272766     -0.75751795230370      1.33160591163425
  H   2.96954594928747     -1.46761976666839      0.42064297598222
