12
Coordinates from ORCA-job orca
  C   1.30341622092009      0.14188857257281      0.20708077133592
  C   -0.01755049594316     -0.06354891053316     -0.53462911719372
  C   -1.21706645190451      0.46850302199002      0.25039489209196
  O   -0.20061588299777     -1.43121372430965     -0.89534820727702
  H   1.28517260176673     -0.36751214764644      1.17852280100602
  H   1.49366542299069      1.20396216605074      0.39133547478876
  H   2.13401099844753     -0.26477905063161     -0.37538652618098
  H   0.03366157889284      0.46036934757426     -1.49628684574700
  H   -2.14313879591509      0.29084607411848     -0.30213476697439
  H   -1.12298148565352      1.54303214856274      0.43706332363905
  H   -1.29698359091085     -0.03347378527238      1.22252538556279
  H   -0.25159111969298     -1.94807371247580     -0.08313818505139
