18
Coordinates from ORCA-job orca
  C   1.90183895410619      0.25411403886569      0.89773328526426
  C   0.89502649284495     -0.54898780315402      0.10238441492391
  C   0.51197612161495     -0.16485779807753     -1.30970255640319
  C   -0.51357805956438     -0.07620600901490     -0.20066777144350
  C   -0.97475286767579      1.29654002720900      0.25159790744454
  C   -1.61222561712807     -1.12251618389295     -0.17599176432063
  H   2.92068683235362     -0.08549515950750      0.68200879235163
  H   1.85980448710408      1.32028718633831      0.66184029588334
  H   1.73856757958297      0.14466804666681      1.97563133813306
  H   0.97089208124898     -1.62059766527042      0.27587227655999
  H   0.41039836244214     -0.94510872141389     -2.05748048621015
  H   0.91207878951349      0.76589819797691     -1.70145334634192
  H   -1.79593042083794      1.65186468012360     -0.38140705327261
  H   -0.17781665714371      2.04142554779608      0.20139124623562
  H   -1.34336710098532      1.26875659813066      1.28377581355089
  H   -2.01589288939984     -1.24578945811164      0.83585444904879
  H   -1.24414761487127     -2.09703516625688     -0.51009863148603
  H   -2.44355947320504     -0.83696335840732     -0.83129020991799
