19
Coordinates from ORCA-job orca
  C   -1.22599184047102     -1.44361352031591     -0.49028831053353
  C   -1.14533728215283     -0.11147230032871      0.26395414198527
  C   -2.39969643333735      0.74073391296523      0.03603981600527
  C   0.09010570013368      0.68627376289904     -0.13714551556927
  O   1.25533901451570     -0.07271984516903      0.22851071733285
  C   2.44321662387249      0.47564129625375     -0.13736222124067
  N   3.46728894563673     -0.32200591025674      0.27446868167415
  O   2.56695844408666      1.52093769999282     -0.73498806415718
  H   -1.32568053186915     -1.27368854040621     -1.56885089346684
  H   -2.09279026941213     -2.02651030926447     -0.16389088153202
  H   -0.32885081180228     -2.04551110071726     -0.32669856224855
  H   -1.06059442884410     -0.32474063684078      1.33782385807791
  H   -2.36087907617679      1.67666212988944      0.60252164819257
  H   -3.29841919261530      0.19930846973206      0.34551187787676
  H   -2.51639389268722      0.99568114001564     -1.02344338621028
  H   0.12291973067145      1.65691765613558      0.36885595225323
  H   0.10719364774769      0.87897734983322     -1.21605716457262
  H   3.29548550902292     -1.17781058831527      0.77005045259631
  H   4.40612514368084     -0.03306066610240      0.06988085353664
