18
Coordinates from ORCA-job orca
  C   -2.35863701716797     -1.22214583733089     -0.14257302282377
  N   -1.51880067066215     -0.03830381328882     -0.11484238198339
  C   -0.24374623359005     -0.18761629587552     -0.01155772796882
  C   0.50149757830648     -1.44205433878860      0.08673938766074
  C   1.84033800516451     -1.44708864451203      0.18694968674928
  O   2.59939721469646     -0.32888543037214      0.20567810577264
  C   1.94588812937732      0.86757595258497      0.11866041553252
  C   0.61303767133057      1.00631005267978      0.01508880122303
  C   -0.02578030567637      2.35900828437986     -0.07589051018875
  H   -2.27054280134039     -1.82700996873723      0.77285833150277
  H   -2.13215430158760     -1.88343913057682     -0.99290233506644
  H   -3.40463064683053     -0.91830800883692     -0.23418657645200
  H   -0.01534795911948     -2.39249716208291      0.08017543320366
  H   2.45058614790812     -2.33868450862642      0.26312240764871
  H   2.64574879712966      1.69312653628911      0.14422140865405
  H   -0.60914852951690      2.44186765798501     -0.99795697557450
  H   -0.73656449943088      2.49935912798444      0.74417762681066
  H   0.71885742100920      3.15878552712509     -0.04776207470038
