24
Coordinates from ORCA-job orca
  C   -2.20628975669342      1.42389499985679     -0.92830600320778
  C   -1.29931354001043      0.49467999636405     -0.11076743608972
  C   -2.13688672394969     -0.52213210924257      0.67636839728388
  C   -0.26761384031341     -0.18172458900764     -1.03388302349802
  C   0.76296081273427     -1.09540520910728     -0.35240618597514
  C   1.67830154399572     -0.43169888678878      0.68586640834216
  C   2.57112473885980      0.66481706404612      0.10420542995090
  O   2.46034071121228     -1.42034527611116      1.35799689859706
  H   -2.91731722331031      1.95217411083022     -0.28535850723381
  H   -1.62470179801915      2.17492937133357     -1.47255281862561
  H   -2.78594546150417      0.85611490387771     -1.66563079670996
  H   -0.75848784532452      1.11852312234381      0.61398571462864
  H   -2.66285647956909     -1.20259255535748     -0.00407871974996
  H   -1.52600271033769     -1.13140815691392      1.34797089588525
  H   -2.89221449204332     -0.01745474202945      1.28679534746973
  H   -0.81297871850220     -0.77824948429900     -1.77788676492585
  H   0.25450060744537      0.59491059527492     -1.60628041927902
  H   1.40171605758711     -1.54073122007365     -1.12927772424876
  H   0.25991096318475     -1.93277925263362      0.14194790593808
  H   1.06594384473257      0.00084514234910      1.48486164647514
  H   1.98582849228864      1.50818571892812     -0.27330805336359
  H   3.17322675910886      0.27732706904616     -0.72708566064426
  H   3.25205739824196      1.03591595707401      0.87436715753239
  H   3.02469666018608     -1.84779556976003      0.70336431144824
