25
Coordinates from ORCA-job orca
  C   -4.12797719208150      0.29016675819972     -0.26178610230819
  C   -2.62688195849157      0.46685183133972     -0.50527189680232
  C   -1.85120868776952     -0.85280183150724     -0.41799921723760
  C   -0.35033071408344     -0.74012419625995     -0.71840125816327
  C   0.44801343063591      0.05817834721208      0.32283243452305
  C   1.92552471024690      0.06830649619063      0.01730751063917
  O   2.63995112509332     -1.15435985608305      0.25594697006956
  C   2.96433184719375     -0.00634102987154      1.05151109763148
  C   4.34188489276048      0.57689493675035      0.87397213537447
  H   -4.32215703029249     -0.12002235006397      0.73514341561045
  H   -4.66154040878167      1.24260503312578     -0.33772177733152
  H   -4.56906435425836     -0.39719344596796     -0.99168198026570
  H   -2.46703686682799      0.91352832943986     -1.49556605280840
  H   -2.22804871522303      1.18663036152542      0.21943119338252
  H   -2.29620477633224     -1.56803116793968     -1.12170167264213
  H   -1.98904959537499     -1.29037321798343      0.58041268483364
  H   0.08050813946386     -1.74619511922333     -0.77627593519344
  H   -0.20902189788337     -0.28942605631561     -1.71031934743784
  H   0.29096820480850     -0.37568558764307      1.31756303092343
  H   0.09807106858676      1.09706955286544      0.36719474136268
  H   2.19825878160691      0.54904057026697     -0.92597204716719
  H   2.62459359706119     -0.08784750651633      2.08643303805948
  H   5.08906830430794     -0.02765858835123      1.39780005267769
  H   4.38281559178890      1.59161236869046      1.28430976227082
  H   4.61453050384575      0.61517336811996     -0.18363278000084
