25
Coordinates from ORCA-job orca
  C   3.41208499197557      0.26292774740343      0.32565787470934
  C   1.95001086123057     -0.14998675780760      0.48013488040183
  O   1.30795959511585      0.61725597153665      1.50311481385036
  C   1.18440031814706     -0.07889653976255     -0.84694913858022
  C   -0.17510023966381     -0.76037496344696     -0.83257114166543
  O   -0.70047365128097     -0.91887454244028     -2.17678225641749
  C   -1.98700234953569     -0.36754272459174     -1.82775902452541
  C   -1.46594546405022     -0.02201242772060     -0.43334134718956
  C   -1.67797707034825      1.23813051188972      0.38825432965129
  N   -2.16449056504990     -0.03964290509820      0.78220123642025
  C   -2.82026369545560     -0.74335665207399      1.73914440772147
  O   -3.30516813043165     -0.26920160032451      2.74198692167748
  H   3.48847380952685      1.28289789986498     -0.07149750718921
  H   3.91665286302830      0.23270007499004      1.29491513639766
  H   3.94155921299312     -0.40189429603253     -0.36265400918541
  H   1.91156822033917     -1.18213616849464      0.85025721923934
  H   1.59110981888537      1.53356804408130      1.40762812633654
  H   1.77076907254378     -0.58306479114364     -1.62508243520692
  H   1.07910296315954      0.96725300651149     -1.16092891948566
  H   -0.09948383126878     -1.73784348386692     -0.33142341348185
  H   -2.27161134590510      0.46878809754981     -2.47573493834498
  H   -2.78308389110785     -1.12327384561933     -1.83855239095369
  H   -0.83274697976267      1.62930210029906      0.94672919205495
  H   -2.40906654957955      1.96550855413692      0.03769349209530
  H   -2.86127596350511     -1.82023130983990      1.48555989167001
