17
Coordinates from ORCA-job orca
  C   -2.47585520380231      1.06826783189135      0.78195950320057
  C   -1.62509263153141      0.19957399873827     -0.12335186099634
  C   -1.80347658947438     -1.31664419567584     -0.13045740409963
  C   -0.53054723913954     -1.50860260345501      0.24345356141948
  N   -0.24707540839489     -0.11066425954117      0.39024689594821
  N   0.82421558332348      0.58343128797987     -0.02856032649030
  N   1.85609478731984     -0.10721395041803     -0.08952454161656
  O   2.90714914617383      0.80582947433132     -0.42849169377081
  C   4.09203304556425      0.18377983773389     -0.65358007642444
  O   4.32555036449537     -0.98701255249097     -0.62261846736013
  H   -3.49645181582840      1.12613295640261      0.39144984124600
  H   -2.51233838710791      0.65879559363148      1.79448643644743
  H   -2.07225497860000      2.08327720116083      0.82799392707087
  H   -1.55202401303786      0.61860409830205     -1.13263277678653
  H   -2.65430907622834     -1.95615419819818     -0.30124122077019
  H   0.14725586993068     -2.32498608061093      0.44118630382061
  H   4.81712554633757      0.98358356021846     -0.87972710083826
