17
Coordinates from ORCA-job orca
  H   1.23478473990630      2.30448837561661     -0.44500198855410
  C   1.30785660428815      1.25016075004624     -0.22843861670392
  C   0.32334566858480      0.30020675339782     -0.05745326692293
  C   0.99265086905014     -0.93477472059892      0.21215519970781
  C   2.34590073027310     -0.69292235410700      0.19486754791399
  N   2.52955972220257      0.63861163201526     -0.07380968614318
  C   -1.13285889439852      0.54532814757906     -0.14125358346130
  C   -2.10341305925905     -0.18860512353468      0.76102282533585
  C   -2.07220986393521     -0.49857550226158     -0.70940982650922
  H   0.53191443117139     -1.89362905210840      0.39773555491511
  H   3.18538379867858     -1.35188274410763      0.35010212654905
  H   3.41958094162422      1.09827705628071     -0.14633326795587
  H   -1.39056380332028      1.57691973682810     -0.36419165606643
  H   -2.95176361516881      0.36138212281427      1.15440159654253
  H   -1.68637345931046     -0.91552697636902      1.44955766073718
  H   -2.89917895713958     -0.16120453383401     -1.32520368097376
  H   -1.63461585324733     -1.43825356765685     -1.02874693841081
