14
Coordinates from ORCA-job orca
  C   -1.20943430959014     -0.89476422899491     -0.91324774055318
  C   -0.61692219109147     -0.29055436016629      0.34181156943974
  C   -0.30633247946293      1.16221598879373      0.45167898832514
  C   0.84432372438362      0.15960623466306      0.44768443444895
  C   1.74975939201174      0.12337367577124     -0.71948790084397
  O   2.92692071230186     -0.14566236642369     -0.66232307112884
  H   -0.90967564258681     -1.94046641485621     -1.03349710904423
  H   -2.30273402033830     -0.86459038550063     -0.86361581612529
  H   -0.90978664611780     -0.35445603366189     -1.81447005866264
  H   -0.96343961910755     -0.76030850576119      1.25867792940019
  H   -0.42219833769614      1.76873056954194     -0.44200572698116
  H   -0.49914730877346      1.69041490163360      1.37808830977872
  H   1.34406373671670     -0.03705924551943      1.39029935172412
  H   1.27460198935069      0.38352017048068     -1.69332415977755
