15
Coordinates from ORCA-job orca
  C   -0.58316946552538      1.46054126551631      0.47355419710969
  C   -0.23821909995227      0.22906289675671     -0.37278002481496
  C   -1.29650648541779     -0.87405588176095     -0.24965712495571
  C   1.11513654301738     -0.31020486505617      0.02232798404525
  N   1.89851800920539     -0.97318803796228     -0.98617253809491
  O   2.25476110048012      0.36672835867431     -0.42520061300076
  H   -1.54055219068469      1.88831459661306      0.16229472577740
  H   0.18364423630216      2.23390728153274      0.37186863869695
  H   -0.66625308032932      1.20197508133511      1.53564547524261
  H   -0.15049854993546      0.52858592042480     -1.42310560480726
  H   -2.27813939878473     -0.50499007565645     -0.56050358180486
  H   -1.04571885226903     -1.73510836484891     -0.87629837421493
  H   -1.38897830949118     -1.22186619251579      0.78585382492429
  H   1.18487003415921     -0.68679970876366      1.04920759889147
  H   2.55110750922559     -1.60290227428884     -0.50731358299427
