16
Coordinates from ORCA-job orca
  C   2.89648641028351     -0.22335723216058      0.13675588134344
  C   1.48038242448761      0.06828403024840      0.60809293815648
  O   0.65032750691235     -0.92803760809714      0.02794726520349
  O   -0.69563429716062     -0.67601190326506      0.50155780584571
  C   -1.47954972370180     -0.36166240763652     -0.64092224425489
  C   -2.89451998159223     -0.11897964576671     -0.13899855131684
  H   2.96347009531440     -0.17180658399196     -0.95312495668222
  H   3.21415496544440     -1.21931011383001      0.45563925381768
  H   3.58466933691669      0.51267747618485      0.56142697660271
  H   1.15240796387768      1.06769314386631      0.28911185765317
  H   1.40731866088071      0.02086745077592      1.70241026291494
  H   -1.07746004827274      0.52976096840781     -1.14241639684077
  H   -1.44734225766180     -1.19576740265228     -1.35400403387538
  H   -2.91978518950085      0.71432430839220      0.56805453544229
  H   -3.54770153524256      0.12218143255990     -0.98217449223125
  H   -3.28722433098474     -1.00815991303515      0.36064489822145
