23
Coordinates from ORCA-job orca
  C   -1.49584393383506     -0.39325669320763      0.43478057762478
  C   -0.86517169486347     -1.68700736961121     -0.11666077896462
  C   0.54232555732367     -1.58632457812382     -0.73362492710312
  C   1.64521877726218     -0.87251439235010      0.08176331747463
  N   1.77184734368477      0.57646509864332     -0.03851563973949
  C   0.91981922155833      1.45146786661909      0.75365160776868
  C   -0.40535489520115      1.93597405549689      0.12792502473220
  C   -1.31884869679001      0.85026129304067     -0.46644495581143
  H   -2.56067071587491     -0.58511449594564      0.60454878578449
  H   -1.08432838698197     -0.18621597871203      1.42812025020365
  H   -0.84471650220071     -2.43034446819491      0.69050559241103
  H   -1.52917922330321     -2.10462399110137     -0.88462489143961
  H   0.88078743961113     -2.61125464180512     -0.93380577036060
  H   0.49106871301394     -1.10561799755034     -1.71897006448987
  H   2.60654984227269     -1.30246971360800     -0.22872335603122
  H   1.54492873992214     -1.11001774382955      1.14802171239609
  H   1.82965743525461      0.86768690420812     -1.00689715805821
  H   0.72199702146646      0.93522238828858      1.69869290320561
  H   1.49311060057478      2.34854242995140      1.02825329093188
  H   -0.17960046315129      2.67339554090328     -0.65364385460043
  H   -0.94716177896686      2.48834181445087      0.90806791685852
  H   -0.92394708811486      0.54447990407242     -1.44061044319143
  H   -2.29248531266122      1.30292276836509     -0.68180913960151
