18
Coordinates from ORCA-job orca
  O   1.28950834012826      2.39747625489223      0.55009316326754
  C   0.48096239805324      1.82643580825640     -0.13875790379362
  O   -0.27183276211153      2.43496244042060     -1.06091343584571
  C   0.19330202293454      0.32412713102429     -0.01835598423514
  C   1.50675214616786     -0.44264371429943      0.01984568639372
  O   1.20393515635177     -1.82887749639719      0.10354314619143
  C   -0.82680342180482     -0.04536554359800      1.10420523666939
  C   -1.67625752620944     -0.71733999241503      0.00088451231696
  N   -0.79067049040298     -0.12813775679049     -1.04780492166019
  H   2.08616836209932     -0.21975041244573     -0.89045861421406
  H   2.08719589415156     -0.08699984605475      0.87952181732943
  H   2.01953445450280     -2.31330720726376      0.26001219002078
  H   -1.28992927588811      0.82097753239664      1.57784592994802
  H   -0.43451837465581     -0.71473493161940      1.86850834579702
  H   -1.63242934043248     -1.80848518756518      0.03485373303121
  H   -2.71768591808513     -0.39709868688196     -0.08720481476054
  H   -0.81069228367628      1.70767609425167     -1.45456427434033
  H   -0.41653938112279     -0.80891448591092     -1.70125381211593
