24
Coordinates from ORCA-job orca
  C   4.20380265290427      0.29742098442649      0.16277631956509
  C   2.81508766182677     -0.17165050516482      0.60412099251867
  C   1.71516309440811      0.21334122282404     -0.38901721388645
  C   0.33406119959117     -0.25103340084512      0.05148290043413
  O   -0.60459330478547      0.13967017905408     -0.93218795610368
  C   -1.91976090548853     -0.33906184855293     -0.72577781448564
  C   -2.70548360545135      0.42624451750308      0.34225811992020
  C   -4.15190224349421     -0.06601693669908      0.44130653079137
  H   4.23827052466666      1.38694251820976      0.05838471570798
  H   4.47756415914054     -0.13545990949522     -0.80504035036405
  H   4.97199138764948      0.00803409139949      0.88617750231293
  H   2.82304355459534     -1.26123097907812      0.73658615711522
  H   2.58321786698378      0.25168194730536      1.58994505989765
  H   1.92884243274987     -0.21569996170705     -1.37518922049285
  H   1.69223306496104      1.30167493283557     -0.52130044197014
  H   0.31875163786330     -1.34822256139653      0.17311283648220
  H   0.08816579395909      0.18359008242676      1.03359414523223
  H   -1.90119901128566     -1.41496501679429     -0.48229889858022
  H   -2.42775569027978     -0.23557930837134     -1.69156292886048
  H   -2.68126780241415      1.49273361216063      0.09118043005849
  H   -2.21516648137569      0.32153324362625      1.31651776402470
  H   -4.71197192557095      0.49317244574178      1.19585654461293
  H   -4.67664234042301      0.04831412954300     -0.51332742818568
  H   -4.19444972073063     -1.12543147895177      0.71601723425539
