16
Coordinates from ORCA-job orca
  C   2.59316099051977     -0.09263071468057     -0.16066007174029
  O   1.41434678611762     -0.18283592606038      0.61280847188168
  C   0.28325839749547      0.26537184175672     -0.06656414210460
  C   -0.43889056564899     -0.67868534596007     -1.00011546553846
  C   -1.02872767899931     -0.30960508853063      0.34962779476527
  C   -2.26134110322432      0.56085868961705      0.44276578482865
  H   2.81665180840583      0.94892774983115     -0.43856691140498
  H   2.52035737935076     -0.68545555391819     -1.08404763148991
  H   3.41058606515572     -0.47904575019772      0.45176737335202
  H   0.32254541291304      1.32260059441274     -0.34193578213243
  H   -0.02195965815253     -1.67494725108544     -1.10571221305502
  H   -0.90422118146033     -0.28209192881752     -1.89750410869360
  H   -0.95008296729432     -1.08429689881671      1.10846561102361
  H   -2.32809315429554      1.05785555065280      1.41668857672185
  H   -2.25187867069527      1.33990316536730     -0.32725191646006
  H   -3.17571386018759     -0.02592313357053      0.30257363004624
