18
Coordinates from ORCA-job orca
  C   1.09800643953723      0.80225658353681     -0.94822220366509
  C   0.77436641018783      0.10874091753495      0.38073773242976
  C   1.47387561268094     -1.25786156341439      0.45589901444729
  C   -0.71438614953028     -0.05537494764544      0.66906892942094
  C   -1.76300280256528      0.96576326225832      0.31011536182580
  C   -1.73950536157600     -0.37243778057128     -0.39174882849762
  H   0.78612847927989      0.19460437141820     -1.80375404014693
  H   2.17724090463176      0.95872074940822     -1.03691851049104
  H   0.61904701053319      1.78142921912493     -1.03326781493783
  H   1.18332604459401      0.73505830138875      1.18650612092949
  H   2.55484582345642     -1.15863775946671      0.31433150142023
  H   1.30740228130485     -1.73875800325312      1.42503646176067
  H   1.09385655420844     -1.93126707579109     -0.31987563033621
  H   -0.89237498597812     -0.55411098392645      1.61966392506220
  H   -1.46673495588111      1.83478152501828     -0.26620035907548
  H   -2.55208080581267      1.16453778010526      1.02677653579983
  H   -1.42637966370704     -0.38251282315529     -1.42956203345272
  H   -2.51362883536407     -1.09493277256997     -0.15858516249327
