21
Coordinates from ORCA-job orca
  C   3.04557291262974      0.78446582556677     -0.41400018553100
  O   2.02765030114549     -0.14241099674808     -0.72062757758626
  C   1.25134355940447     -0.51176136939182      0.39475571568217
  C   0.14447458733229     -1.51097320217712     -0.00264706381576
  C   -0.95157017000267     -0.49044169563000      0.43134489138877
  C   -1.86573535152557     -0.00957730241078     -0.65948394719274
  C   -3.20254264731859      0.52948638308387     -0.38643330768652
  O   -3.03899753537601     -0.78728194133236     -0.92208371610800
  C   0.16694520409506      0.51799540415060      0.83966989451387
  H   3.58000284562335      0.99864952766834     -1.34172370136570
  H   2.64206862670844      1.72615793504925     -0.01284186262183
  H   3.75490600544928      0.37583008437712      0.32259362534392
  H   1.90771780026806     -0.84615964155108      1.21258029556778
  H   0.15624427797280     -1.74484017544633     -1.06982400044234
  H   0.14790283667180     -2.44691056066982      0.55913451323602
  H   -1.56303203372830     -0.83943235047004      1.26784036189150
  H   -1.35505774034713      0.33831822595128     -1.56132973940044
  H   -3.64450637485065      1.25964145243714     -1.06320739770086
  H   -3.56272968777934      0.57503211682818      0.64105042767552
  H   0.17991521516780      1.43919989109094      0.24946051675091
  H   0.17942636845968      0.78501338962394      1.89869325740098
