24
Coordinates from ORCA-job orca
  O   -4.29233253798622      1.20296356038727     -0.55788150689430
  C   -3.84880376991905      1.05783275714514      0.55473094116661
  C   -2.40475335862430      0.69142112459374      0.83599291532120
  C   -2.06727311918845     -0.69948388046120      0.26214988608668
  C   -0.61536110300171     -1.13797293499089      0.49349412352160
  C   0.42980272452174     -0.29547574379768     -0.24619615487386
  C   1.85672642626639     -0.82941374349313     -0.06739206791948
  C   2.87635294916653     -0.00048737958932     -0.80996739634187
  C   3.58442600062142      1.11871470310349     -0.17784075824015
  O   4.24150957103545     -0.13032207282083     -0.40736339624643
  H   -4.50433841689114      1.17961031422631      1.44667584571039
  H   -1.77753494854475      1.45347150456094      0.35971310396679
  H   -2.21448681684485      0.72395103963328      1.91449682787708
  H   -2.29291609406147     -0.68980533861239     -0.81007712567814
  H   -2.73880497646276     -1.44119938521528      0.71136363454983
  H   -0.51715789745560     -2.18338545848822      0.17468354805324
  H   -0.39560025003723     -1.13053696698402      1.56971971034300
  H   0.39320176767193      0.74448167775671      0.09991009624575
  H   0.17937227446996     -0.26878128338267     -1.31536362029450
  H   1.91030244568237     -1.86624005126474     -0.42365217426185
  H   2.12896338438638     -0.85009277766507      0.99453637268488
  H   2.74187398733488      0.04212784096665     -1.89331601106420
  H   3.93938187153798      1.95292905435061     -0.78144412170406
  H   3.38744988632252      1.35569444004127      0.86758532799178
