18
Coordinates from ORCA-job orca
  C   -1.43074793590640     -0.16433832694024      1.56769192433390
  C   -0.28235322374030     -0.66318037797545      0.71311204841924
  C   -0.58147870406708     -1.46886085141476     -0.58015090668766
  C   0.81459593026403     -1.10853825530620     -1.12888311291406
  C   0.15152933715039      0.15804018446872     -0.53893076038362
  C   0.56086092982116      1.60865740204862     -0.65587723720139
  C   1.81484895555000      1.87102981072018      0.04424383103534
  N   2.80762054220529      2.05500952715380      0.60653187789557
  O   -1.11070393215108     -0.22610057481965     -1.21254868546609
  H   -2.24266998836780      0.21426023190314      0.94295528359657
  H   -1.09932866950583      0.63629145948441      2.23746056825624
  H   -1.82288103347060     -0.97066461433692      2.19566256499927
  H   0.55019589137863     -1.05150605392903      1.30874249123931
  H   -1.16355885392260     -2.38050033260112     -0.71090219393685
  H   1.69360611811619     -1.51361759177026     -0.62252786096719
  H   0.89721449930411     -1.11692259574630     -2.21641202584500
  H   -0.22622813388520      2.24586735024480     -0.23724932768326
  H   0.66947727122710      1.87507260881628     -1.71291847869033
