19
Coordinates from ORCA-job orca
  C   -1.75194829569824      1.44510764325422      0.57272048633521
  C   -1.44417662678632      0.11410104298718     -0.10258296033414
  O   -2.46196276541833     -0.79591528514650      0.31071533202658
  C   -0.06965565819545     -0.41073895563239      0.24964950800672
  C   0.59288332740402     -1.44544891094525     -0.63580566578334
  C   1.14206085315140     -0.04129464246331     -0.56365390965396
  C   2.46885895500079      0.23913417075661      0.10641335117712
  H   -1.03457444619783      2.20953666909275      0.26227645901253
  H   -2.75785165085874      1.78224556763439      0.30943318668566
  H   -1.70269073639265      1.33734878225634      1.66037767527858
  H   -1.49055548063053      0.25345318781614     -1.19703147079242
  H   -2.20626682807840     -1.67393230209558      0.00795218270389
  H   0.08809681259528     -0.53248553744034      1.31952316174495
  H   1.15680514650908     -2.24173217881225     -0.16112809570244
  H   0.08222056123904     -1.74699246876136     -1.54586595384202
  H   0.94208412082577      0.57271211391271     -1.43934173290783
  H   3.30363427412391      0.07573955269835     -0.58344257410813
  H   2.61928687884631     -0.41535273519115      0.97052165721407
  H   2.52375155856089      1.27451428607943      0.45926936293895
