18
Coordinates from ORCA-job orca
  C   2.16516855589784      0.17773691052918      0.97612728766116
  C   1.47419288161530     -0.57368992792408     -0.16576382533443
  C   0.17884509941425      0.07773002220633     -0.60323238017530
  C   -0.88951301702140     -0.72649357425668     -1.30244502701806
  C   -1.11837467692527     -0.22521864252844      0.10331653435432
  C   -2.13461564787666      0.86266651364669      0.36871436455633
  H   2.41192535590476      1.20353221939028      0.68112378715025
  H   1.51897242938390      0.23563361898078      1.85821923379468
  H   3.09640373736338     -0.31446799737229      1.27365385884601
  H   1.26725594153969     -1.60624721995097      0.14457824407296
  H   2.15592281161204     -0.64825397260188     -1.02325047194979
  H   0.29454635467856      1.10664053905890     -0.94272666713903
  H   -1.45001715678536     -0.25633723551704     -2.10483977576151
  H   -0.70830030213547     -1.78636247342826     -1.45326510674126
  H   -1.05649868587923     -0.97945632161534      0.88620605387740
  H   -3.14754555283316      0.45395584979933      0.45640510474582
  H   -1.91352827632887      1.40530846450707      1.29458677170924
  H   -2.14483985162431      1.59332322707641     -0.44741098664878
