25
Coordinates from ORCA-job orca
  C   5.29666192465945     -0.89090820796042     -0.31826084945806
  C   3.86994197733677     -0.73905064170566     -0.08225651120446
  C   2.68779964357276     -0.60653026491695      0.11440047043480
  C   1.27936319739671     -0.50731761250854      0.38189613142808
  N   0.58804085223263     -1.36552858307047      1.02788387553977
  O   0.76685561955284      0.61997326573570     -0.14349353824333
  C   -0.63052502514425      0.97461634449849      0.04410545550143
  C   -0.95257567141871      1.28130731603288      1.50386528141172
  C   -1.57901456254262     -0.03702642164405     -0.61810115822232
  C   -2.91092608027127      0.58517044409907     -0.95912673646648
  C   -4.16408965558507     -0.17682813727262     -0.92626927104960
  O   -3.85511060463369      0.76175391953866      0.10542147195675
  H   5.87338940296505     -0.51508111911099      0.53327158503419
  H   5.56310032179315     -1.94245612512762     -0.46483251358972
  H   5.61049723843336     -0.33453181140410     -1.20701353127336
  H   1.18379747764505     -2.13259489173994      1.32975876917913
  H   -0.68298753380865      1.90801633394718     -0.52714759337625
  H   -1.96551705822540      1.68529415120670      1.57199464540164
  H   -0.89510416117053      0.38178961215092      2.11660274153401
  H   -0.25227834557246      2.02488477559329      1.89468468010385
  H   -1.71690053384528     -0.90670374468531      0.02581919912098
  H   -1.11694690196118     -0.38212701064837     -1.55133941572064
  H   -2.86511873320435      1.43797668340733     -1.64086528120746
  H   -4.98765216643159      0.09999481258569     -1.58308086111158
  H   -4.14470062177271     -1.22409608700088     -0.62791704572309
