8
Coordinates from ORCA-job orca
  O   -2.05063468047303      0.49330600639973     -0.61231457384012
  C   -1.09827521862147     -0.20648600213884     -0.38749704156468
  C   0.29669396239934      0.32806781809752     -0.11000650634359
  O   1.14235398653162     -0.77856157903174      0.11650477725008
  H   -1.15998962341574     -1.31701260022424     -0.35025528027399
  H   0.60415733127202      0.93595113104051     -0.97558453470570
  H   0.23310913137530      1.00664832148793      0.75538593815772
  H   2.03258611093196     -0.46191409563088      0.29387622132028
