11
Coordinates from ORCA-job orca
  H   -1.62404903078591      0.83077796967495     -0.96435454382625
  C   -1.56883307952297      0.09041247496143     -0.16733280562715
  C   -0.27753181447519     -0.20167149435407      0.46306124540792
  C   0.99814523877533      0.46151119116294      0.01298397707521
  H   1.23776295524572      1.29622418615165      0.68065369519356
  O   2.09880476128424     -0.42872267894957      0.07362946208325
  H   1.89018236701434     -1.18033751881165     -0.49294867941152
  O   -0.85820033086954     -1.10617734460219     -0.48922605974305
  H   -2.48821342599608     -0.04702608119331      0.39916468111426
  H   -0.26802184464015     -0.58235069941776      1.48488306046179
  H   0.85995320397021      0.86736099537758     -1.00051403272802
