21
Coordinates from ORCA-job orca
  C   -3.04727920507088      0.56377296283468      0.28724003072506
  C   -2.16280597675801     -0.65209083642089      0.56252261476103
  O   -0.83595298785173     -0.32755405683389      0.93533603097870
  C   -0.01636760405020      0.13906721167141     -0.11883853245370
  C   1.42613428086807      0.24126604387889      0.37634562938666
  C   1.97194180581779     -1.12795844985146      0.79779572663235
  C   2.30572098163169      0.89272571647253     -0.69687546597525
  H   -2.72374023401568      1.11871388348470     -0.59754459307971
  H   -4.07888796544513      0.24008434678831      0.11494205753395
  H   -3.03850464708509      1.24421421112610      1.14348516218406
  H   -2.15790004757269     -1.32370188606164     -0.31148351685827
  H   -2.57078732453534     -1.21805535094281      1.40610358063619
  H   -0.07271869796518     -0.55309656434968     -0.97834084871356
  H   -0.35315722252874      1.12495742896028     -0.47515249977588
  H   1.41118863711997      0.89402738206616      1.25893899919809
  H   1.32160894363764     -1.59401441066748      1.54110747473323
  H   2.97469105001320     -1.03518288834908      1.22652248757323
  H   2.03913665323299     -1.80030557570913     -0.06582417123824
  H   2.33335065332059      0.28265949579921     -1.60714858547847
  H   1.93919190117166      1.88729584386457     -0.97131882156768
  H   3.33513500606508      1.00317549223923     -0.34365675920178
