19
Coordinates from ORCA-job orca
  C   -0.71199456268436      2.04298741304437      0.58703523846631
  H   0.06501618073378      2.22006366730942      1.34514195250928
  C   -1.75789569250758     -1.19121588099079     -1.33608975056042
  H   -2.53163425917098     -1.37833641174610     -0.57555408776757
  C   1.10787467007427     -0.53355256834059      0.86846862112747
  C   2.25719917967850     -0.40383973547244     -0.13256196708093
  C   -0.26454885332147     -0.27501349557051      0.24650823213747
  H   -1.05847887834113     -0.36699217729457      1.01554763971434
  H   -0.84507833753863      2.95957909068359      0.00842374443529
  H   -1.65305653615146      1.81278080729427      1.11048316377350
  O   -0.35910426689913      1.02664670120068     -0.32343036221817
  H   -1.78618841475830     -1.99318579869184     -2.07578607960924
  H   -1.96813786679054     -0.23339375982584     -1.82370034435290
  H   3.22081692031946     -0.56866479521698      0.35839858052186
  H   2.15306907868144     -1.13354014518209     -0.93897805622630
  H   2.26741818360603      0.59289851637465     -0.58157362997230
  H   1.08695132715871     -1.53603049155643      1.31054334272537
  H   1.24057417070549      0.16950863002120      1.69927051872158
  O   -0.46280204279411     -1.21069756604000     -0.76214475634463
