6
Coordinates from ORCA-job orca
  C   -0.40660949098040      0.03001538952460     -0.06499197324715
  O   0.73544185883051     -0.78521829966703      0.07860088588617
  F   1.80698753261584      0.14157401594046      0.30391009836556
  H   -1.21450311982671     -0.68856147846709     -0.23784943670666
  H   -0.60701758223074      0.60247980275815      0.84668715834685
  H   -0.31429819840850      0.69971156991091     -0.92635673264476
