15
Coordinates from ORCA-job orca
  C   2.23497367429298      0.16117839813421      0.08788373077114
  C   0.86670245101697      0.74999708380909      0.28992662454022
  O   0.36798493136631      1.63762615415415     -0.77490392878161
  C   -0.26258159714121      0.42758770153601     -0.55372348616151
  C   -0.86227355799462     -0.59056630692566     -1.44454058366882
  N   -1.63986168426183      0.15715836614474     -0.42139871797534
  C   -2.26304526046123     -0.42767089471370      0.67409393331919
  O   -2.13819356473779     -0.05450118065533      1.81384677798611
  H   3.00768018341656      0.91037780574596      0.28507399666989
  H   2.35866320631446     -0.20930448925662     -0.93337755113495
  H   2.38852310677450     -0.66993579811514      0.78615185426916
  H   0.63891025400552      1.12261671992081      1.28763512238795
  H   -0.66251035109039     -1.64626378619642     -1.26352094859232
  H   -1.09403455062376     -0.32104144639675     -2.47218467607031
  H   -2.94093924087649     -1.24725832718534      0.36822785244120
