19
Coordinates from ORCA-job orca
  C   -2.68498153958634      0.22428194186985     -0.78329022423145
  C   -1.76579878968999     -0.67629121741420      0.04369588705959
  C   -0.57486780860317      0.08669530164856      0.60688533801991
  O   0.13157401483874     -0.82423514617139      1.48103694079834
  N   0.40312104472482      0.50235736760601     -0.40956017507608
  F   3.89495626103627     -0.57738392711691     -0.45516352153385
  C   2.87014952586271      0.33646720621066     -0.51030222630727
  C   1.56380327980627     -0.32560681103729     -0.12155010792872
  H   1.46992167130698     -1.29783602737164     -0.62129265330547
  H   -3.09745096473398      1.03811750560391     -0.17717546256059
  H   -3.52538573569316     -0.34522951562101     -1.18831051322262
  H   -2.13902523079061      0.66883729493333     -1.61999771375056
  H   -2.31509132096012     -1.12096844016415      0.88114266398323
  H   -1.38351533454493     -1.50234418667232     -0.56453699638763
  H   -0.90855143162161      0.96908427445656      1.17077897103608
  O   1.53187897810619     -0.51578430533062      1.29179732289814
  H   0.65133115361463      1.47301414342292     -0.24066024631773
  H   2.78812754294942      0.72378502030763     -1.53257505627917
  H   3.08980568397789      1.16304152084007      0.17700677310583
