20
Coordinates from ORCA-job orca
  C   0.80116117909671      0.62188380939008      1.45991253909176
  C   0.32807989715408      0.08052810560044      0.11329424916302
  C   1.49236554999478     -0.03452612087383     -0.86415161957111
  O   2.42655423565624     -0.97766401332563     -0.35210568952470
  C   -0.52373998337419     -1.24342054811522      0.11573786952299
  C   -1.64698399423541     -0.50849972358184     -0.62457142461401
  C   -2.13142896468671      0.65202878292104      0.19500429768142
  C   -0.85096713787862      0.79763378531612     -0.57669241307556
  H   1.57728897524533     -0.02363367726374      1.87979745851007
  H   1.22210262314939      1.62783623695027      1.34779273259306
  H   -0.01980672888828      0.68180865388119      2.17918147922619
  H   1.96021460370173      0.95557456104578     -0.99177166577404
  H   1.11251764333131     -0.34913039576017     -1.84868890695257
  H   3.16679714641353     -1.03836110310387     -0.96245610008159
  H   -0.79210427434005     -1.64010068780993      1.10027785477738
  H   -0.04548741717511     -2.03913596268021     -0.45736867151019
  H   -2.23326377972393     -0.91689625752973     -1.43931029425788
  H   -2.13074818383302      0.59762820433953      1.28109857100916
  H   -2.97657235399114      1.19686314336532     -0.21356153906774
  H   -0.73598103561663      1.55958120723441     -1.34141772714567
