20
Coordinates from ORCA-job orca
  O   2.91387544235099     -0.36151134061219      1.66221438626040
  C   2.84943827571163      0.08829887023161      0.31409272050349
  C   1.55676188367421     -0.43421928922333     -0.29744926656483
  C   0.29990624260920      0.14341607148280      0.35930274701855
  C   -0.99468350769957     -0.43807170173269     -0.21904280121363
  C   -2.22756824962739      0.15191236152575      0.41884360691691
  C   -3.47990932121282      0.35299662613791     -0.31498858789612
  O   -2.62018412750616      1.45746779828861     -0.02282968758165
  H   3.69351019787215      0.01957958025123      2.07658155112169
  H   3.71145860761763     -0.28079926661734     -0.26308977391654
  H   2.86881579475342      1.18908480464996      0.26502507919469
  H   1.56175677999078     -0.20113878577723     -1.36995131738077
  H   1.55406821525496     -1.52835705179413     -0.21225390480976
  H   0.28734362810082      1.23352412079530      0.23314474172187
  H   0.34301862593960     -0.04541316001488      1.43783138225005
  H   -1.01232648645565     -1.52719990043379     -0.07582095256914
  H   -1.03829850682186     -0.25769612492434     -1.30023033906406
  H   -2.29621330980607      0.02160971049866      1.50156936661729
  H   -3.53823139066688      0.07159717847486     -1.36633430642306
  H   -4.43253979407900      0.34491849879321      0.21371935581462
