21
Coordinates from ORCA-job orca
  C   -2.83190161910947      0.36790771126079     -0.83017139044464
  C   -2.27149399436124      0.41303199288052      0.59725818884984
  C   -0.73809087199524      0.44493970430052      0.67102522964128
  C   -0.05775741486412     -0.84156249123201      0.18838416843256
  C   1.45843583770555     -0.80751948354020      0.32065985580828
  O   1.96757316789530      0.20816188179254     -0.52145897923637
  C   3.36674608329043      0.33934851884711     -0.45329971722676
  H   -2.46042809662523      1.21017775042963     -1.42302732878305
  H   -3.92460280848909      0.42035777022561     -0.82638924402101
  H   -2.55136002261560     -0.55209630851613     -1.35063895314445
  H   -2.64432626316258     -0.45052113672892      1.16345666820537
  H   -2.66566542685272      1.29996300999196      1.10645791419196
  H   -0.36004929109019      1.28845329649586      0.08298971141605
  H   -0.43435747691372      0.63432422515288      1.70859708269385
  H   -0.30323267010327     -1.03381439052657     -0.86145622330521
  H   -0.42968267400344     -1.69811970212664      0.76506001403285
  H   1.89193906039819     -1.78253929330126      0.04197683567112
  H   1.74936872374209     -0.61323492952563      1.36804043487891
  H   3.70385313682107      0.60204943877063      0.56145674052394
  H   3.65629284218578      1.13870801863907     -1.13827412348383
  H   3.87874077814750     -0.58801658328975     -0.75417988470068
