9
Coordinates from ORCA-job orca
  H   -0.44176084276207     -1.46004404667192      0.41370248147471
  H   1.03722998928754      0.43220909332456      1.16448972685342
  C   0.89064618139283      0.21464077335972      0.10287379612263
  C   -0.43516990003250     -0.50420933499752     -0.11956537703035
  H   -1.58576102810678      1.06601428067793     -0.06798761298854
  H   1.72887919852389     -0.39757996004319     -0.24664765843300
  H   0.92090757561014      1.16287023745834     -0.44646004732543
  O   -1.54715618151743      0.21911128953150      0.38850027000151
  H   -0.56781599239563     -0.73301233263942     -1.18890557867496
