16
Coordinates from ORCA-job orca
  C   0.65270647165363      1.41803130455991     -0.15455092032383
  C   0.07104304221656      0.01551318288164      0.00317501642451
  C   1.16361300312032     -1.02597982805300      0.23061140626640
  C   -1.13259797205245     -0.08186232796273      0.97994754458344
  O   -2.03638391147808     -0.44104639423196     -0.08479175041530
  C   -0.98346560399595     -0.37481681648142     -1.06830778024154
  H   -0.13745892955205      2.15627400638968     -0.32156185206741
  H   1.20836894970770      1.71432794040410      0.74173693271004
  H   1.34228533480059      1.46272199243518     -1.00444154613286
  H   1.86354301468926     -1.04873737701153     -0.61164135008622
  H   0.73651841529647     -2.02716573639264      0.34216474078078
  H   1.73777115389480     -0.80028758465934      1.13574824191553
  H   -1.42300196978159      0.85876795883918      1.46496532624690
  H   -1.06039704561835     -0.87017459139912      1.74011952906832
  H   -1.18274110646203      0.38662663622943     -1.83307987403243
  H   -0.81980184643885     -1.34219236554740     -1.56009266469635
