15
Coordinates from ORCA-job orca
  C   -1.37119136097169     -1.27980955774205     -0.42480782525682
  C   -0.68146558123241     -0.21040314132846     -0.02724391127455
  C   -1.09682802838518      1.18928885348049     -0.40236085759956
  C   0.56076419984210     -0.33962964902352      0.82507791532295
  C   1.85489853907576      0.05234435176700      0.09050268447398
  H   -2.26028845847557     -1.19140228669321     -1.04140881991957
  H   -1.07293456698091     -2.28603991963372     -0.14720809386938
  H   -0.32113864428751      1.69708497411982     -0.98703399662859
  H   -2.01749085702915      1.19515340084127     -0.98998340231070
  H   -1.25973548170738      1.80031774152820      0.49425238919943
  H   0.64847914283926     -1.37034649409858      1.18303172406258
  H   0.45270468550412      0.29328645426608      1.71649356902968
  H   2.72468791276367     -0.07124512649816      0.74259031991808
  H   1.83665493529222      1.09561673346743     -0.23782276433848
  H   2.00288556375266     -0.57421533445258     -0.79407693080905
