15
Coordinates from ORCA-job orca
  C   2.89878796524263      1.28843943329293     -1.70251993538653
  C   1.74322942144374      0.61156173669061     -1.13751364985169
  C   0.78796227021574      0.05281515532160     -0.65788166029851
  C   -0.33859706592529     -0.66251164593032     -0.14718213169767
  N   -0.84946778967531     -1.72857503043100     -0.60057273459345
  O   -0.82410703838857     -0.09144240240906      1.00924439983254
  C   -2.20167443050722     -0.05016143665408      1.22298690707768
  N   -2.42134499640524     -0.04220900486084      2.56092378257789
  O   -3.02883886976671      0.04043131368039      0.35945415258490
  H   3.82745617463558      0.82222000254442     -1.35735706787329
  H   2.88618760344077      1.24099065075243     -2.79594436014033
  H   2.92037159164698      2.34215033281778     -1.40789366302092
  H   -0.36050568513384     -2.02259329593352     -1.44390583029538
  H   -3.36860073693959      0.03531385440384      2.88494732292600
  H   -1.67085841388366     -0.18030366328516      3.21321546815875
