16
Coordinates from ORCA-job orca
  C   -2.15267908902781     -0.19107713277409      0.27681897517551
  C   -0.67560489921211      0.04913939709528      0.48789058303339
  C   0.01322435669687      1.25659792655355     -0.10652559996607
  C   0.31161699027177     -0.12767848686782     -0.63266016535960
  C   1.65673598682420     -0.79313844870254     -0.39867519183630
  O   2.22465818864669     -0.50741396788837      0.87188789079214
  H   -2.46676063668646      0.12470982339481     -0.72345834395940
  H   -2.75383182347481      0.36513989469939      1.00413707074937
  H   -2.40120895282883     -1.25265112980768      0.38302205744317
  H   -0.29292856137239     -0.23924154966574      1.46336673520467
  H   -0.56324302651458      1.92873472447408     -0.73354014079597
  H   0.76025466255443      1.75580483566216      0.50274618781315
  H   -0.11175273378127     -0.35772075408578     -1.60860259825773
  H   2.35187709981581     -0.52213672398614     -1.20836728150660
  H   1.53665628693546     -1.88175534826792     -0.43116542133176
  H   2.56298615115302      0.39268594016679      0.85312624280202
