14
Coordinates from ORCA-job orca
  C   2.30712414098569      0.01827598335734      0.41712964656829
  O   1.01965443772895      0.54401427093821      0.19149866480530
  C   0.12805439379938     -0.39947680914581     -0.35987865001879
  C   -1.17618019156077      0.30171648547389     -0.63916767604562
  C   -2.24602169737003      0.34334201091277      0.35948679039548
  O   -2.32221966091331     -0.54170920411973     -0.76361082609289
  H   2.28719598394845     -0.82150863727815      1.12938945111149
  H   2.91872928161262      0.82124309805554      0.83366089071489
  H   2.77198091181914     -0.33844474001176     -0.51550216040125
  H   0.53966836472287     -0.82245967317760     -1.29222154552020
  H   -0.05138217348524     -1.24327018070221      0.32711731460057
  H   -1.11955419371920      1.10966926268161     -1.36956028974487
  H   -2.09786445437874     -0.13746579300478      1.32561620161528
  H   -2.95918414318980      1.16607392602066      0.35604018801232
