23
Coordinates from ORCA-job orca
  C   -0.24263491402207     -0.97650906546221     -2.17699445233217
  C   0.18138812914519     -0.56079839248711     -0.76215024690182
  C   1.62716544148237     -0.02709843701629     -0.77268277739508
  C   2.23263443771885      0.15639767758541      0.60096006404852
  C   3.25334846542490      1.14119748395856      0.89414422951546
  N   2.13597816173073      1.54087715632658      1.29999728034844
  C   -0.78871486317176      0.46433191691179     -0.14134126131395
  C   -2.16883701247658     -0.08944072928970      0.11688406155550
  C   -2.91579181866472      0.22082974469324      1.34173607247645
  O   -2.27896428470185     -1.04857368963424      1.17815015862988
  H   -0.24603950278784     -0.11480881074693     -2.85508262375605
  H   0.44550156273748     -1.72110855556351     -2.58965410598924
  H   -1.24397635274092     -1.41529780221309     -2.19101145404616
  H   0.16105311810186     -1.45430713751656     -0.12313547326187
  H   1.67216963322142      0.92588093643952     -1.31521625584644
  H   2.25446708339882     -0.73249697472863     -1.33588456926053
  H   2.12492621930726     -0.69277689139802      1.27666209142476
  H   4.27917609058597      1.49122746945396      0.85769363302991
  H   -0.37683005202947      0.83267545188085      0.80205056334911
  H   -0.87722113314553      1.33303831716791     -0.80919227757334
  H   -2.75683704410296     -0.35159562621561     -0.76395901228391
  H   -2.46708313061088      0.87623917661768      2.08699683375106
  H   -4.00487623440027      0.20211678123640      1.33516852183147
