13
Coordinates from ORCA-job orca
  C   1.78842022746435      0.16771743193046     -0.04631421532277
  C   0.38042384512908      0.62214458365751     -0.44483612140226
  C   -0.66274456718088     -0.46887375751180     -0.25232954700534
  C   -1.43954830519025     -0.62509090061401      1.03227550755008
  C   -2.11214000192059     -0.16479970054855      0.02762103541367
  H   1.82782219694038     -0.11497094659572      1.01093341880351
  H   2.10163121007800     -0.70447894962397     -0.63056807327092
  H   2.52782210173727      0.95768074675262     -0.21031464809936
  H   0.08972786029275      1.50287950759782      0.14058906584797
  H   0.38415650308708      0.93860409644335     -1.49695171487922
  H   -0.42986293542231     -1.37700703974093     -0.82052631083715
  H   -1.41072914789164     -0.92676331621603      2.06613796643724
  H   -3.04497998712324      0.19295624446924     -0.37571636323545
