22
Coordinates from ORCA-job orca
  C   0.59209472708426     -1.51338026434379     -0.05978950027715
  C   1.64315783935397     -0.42953606942806      0.27062537130710
  C   1.45682162167873      0.95774258058014     -0.36902744209147
  C   0.50165181136255      1.91412681175475      0.35858184214637
  O   -0.74435034004682      1.35734104338879      0.73705080932008
  C   -1.50820693021109      0.77920584463770     -0.31276878996973
  C   -1.88862496878449     -0.65406628363548      0.06109465986569
  C   -0.74698533030127     -1.45737575793328      0.70566140083785
  H   1.05837034792659     -2.47953698897983      0.16584285562949
  H   0.41135178789922     -1.52740410773016     -1.14401355908711
  H   1.72182662259040     -0.32695352601197      1.36102089898672
  H   2.61448516998816     -0.81353201421972     -0.06333855310245
  H   2.42637642769623      1.47062003754992     -0.40830411840585
  H   1.15725892773639      0.83366109945615     -1.41684508021142
  H   0.35575176732628      2.81753770283563     -0.25728208125011
  H   0.95665649141314      2.23566655247360      1.30161672737411
  H   -2.40776831923507      1.38767165987918     -0.48047052470477
  H   -0.94512517106860      0.78526496053777     -1.25248880540317
  H   -2.25055885759875     -1.16059462621020     -0.84342894286485
  H   -2.73174153815369     -0.63655547346751      0.76160996865952
  H   -0.56151420078405     -1.05827129520182      1.70812088861488
  H   -1.11092688587208     -2.48163188593181      0.84778297462628
