14
Coordinates from ORCA-job orca
  C   1.04480939380393     -0.70640649860277     -0.66534478112152
  C   -0.68683730467771      0.44018403364127      0.50472479391182
  C   -2.00414419667220     -0.08736218274539     -0.05044342340819
  O   3.00273315447010     -0.00041007013940      0.30654469883009
  H   2.56366315607543      0.80021084745005      0.63510636192600
  H   -1.91595922303140     -1.12534122563348     -0.38494280153743
  H   -2.33211037383334      0.51882824860284     -0.89894652571769
  H   -0.80596498618065      1.47162345630401      0.84866811560094
  H   -0.34618879273538     -0.15550912371047      1.36078668485975
  H   1.59466184749389     -0.61254778149923     -1.60566013926491
  H   -2.77941142342677     -0.05258292684431      0.72158083006698
  H   0.39410597799302     -1.59196299984279     -0.67208347512963
  O   0.33789836921201      0.48699268892957     -0.49633549251561
  O   1.93274540150908     -0.96652546590991      0.39634415349940
