25
Coordinates from ORCA-job orca
  C   4.48734963591800     -0.48337760081736      0.08542946003239
  C   3.03449091584866     -0.24325668625859      0.50816864696203
  C   2.34088278686573      0.76503128791394     -0.41076136219728
  O   1.03755034389113      1.12957684567898      0.00296029927192
  C   0.04662990446425      0.15020367053301     -0.22578961356603
  C   -1.29802686322856      0.78277495721860      0.09632262390830
  O   -2.29050832514175     -0.19736392368758     -0.10882167764847
  C   -3.60084641504291      0.26645386450299      0.15048169912192
  C   -4.57592024433563     -0.87062709973792     -0.10354373570744
  H   4.54527040991393     -0.88106214298497     -0.93321304907426
  H   4.97855808236519     -1.20057622961525      0.74842269464875
  H   5.06713118267476      0.44513792938545      0.11224295841199
  H   2.99514995914444      0.13837678045267      1.53462399594875
  H   2.49083729855880     -1.19425630968325      0.50266284162192
  H   2.91627524879016      1.69736922645017     -0.42598399762599
  H   2.31723054212639      0.37859389487542     -1.44348795930922
  H   0.05646516061933     -0.18386318307361     -1.27542275312153
  H   0.18784767946761     -0.73812631635768      0.40619060854434
  H   -1.29854994152850      1.13934772734819      1.13871985985549
  H   -1.46009189955395      1.65888772994801     -0.55131750141704
  H   -3.83356670090583      1.12753839795934     -0.49785690283366
  H   -3.67948011312646      0.61843765940555      1.19255412322364
  H   -5.60113474816203     -0.54200301596338      0.08937624331012
  H   -4.50901607501794     -1.20912082117416     -1.14081413037627
  H   -4.35452782460480     -1.71933064231859      0.54885562801563
