19
Coordinates from ORCA-job orca
  C   -2.55402039660306      0.65005447432848      0.10418731561667
  C   -1.36635752693858     -0.26956686068563      0.27671387543522
  C   -1.02293910854365     -1.28297652226488     -0.78811340538906
  C   -0.12273233394739     -0.09069059837697     -0.55699704986888
  C   1.23768724053733     -0.27132159441367      0.03967918672471
  C   2.47564310998003     -0.09097275422973     -0.80263989655018
  C   2.13835026217944      0.91670634488537      0.26884352501790
  H   -3.48684802686215      0.16485513419793      0.41284895284825
  H   -2.66956904526303      0.94653782509567     -0.94412788789243
  H   -2.44384454647807      1.56568695223676      0.69575303424224
  H   -1.19330805473376     -0.58886443106187      1.30279921840349
  H   -0.65667798551371     -2.25733652993521     -0.47991695142488
  H   -1.63346900595407     -1.30323891204513     -1.68576869496363
  H   -0.16800303696481      0.69486540959199     -1.31063444019870
  H   1.28278757193481     -1.05719366766856      0.79145787807569
  H   2.34133721683564      0.20003864517401     -1.83974759689651
  H   3.31669645876297     -0.75560806583677     -0.63598640629725
  H   1.77553592671293      1.89161106614397     -0.04125390433906
  H   2.74973128085913      0.93741408486425      1.16474424745642
