20
Coordinates from ORCA-job orca
  C   0.96758780864703      2.74119539508669      0.99374596429462
  C   0.83024977352298      1.65938520953644      0.48801685288887
  C   0.71132625296634      0.33543102708808     -0.11462295145973
  C   2.03797291493850     -0.38810155380243      0.01015459606180
  N   2.60067881106657     -0.91266965165008     -0.99740228361169
  C   -0.42995510777310     -0.50295946495567      0.55464794380281
  C   -0.67791081089939     -1.81581703310612     -0.19148481767488
  O   -1.61216757748218      0.25114301139890      0.75059303803253
  C   -2.25848567643065      0.75310244612741     -0.40292194456197
  H   1.08168237579867      3.70017734521597      1.43883554243198
  H   0.50213377596708      0.43303169361293     -1.18571119164963
  H   2.44936008037126     -0.41015930428875      1.02916856973546
  H   3.47898078017025     -1.36270983085179     -0.73072080012879
  H   -0.10551808957618     -0.73171709127206      1.57619540199396
  H   0.21194903543762     -2.44859751340716     -0.16663497577162
  H   -1.50251538509717     -2.35455915495640      0.28195756896116
  H   -0.92730827174167     -1.64904550848856     -1.24291872788952
  H   -2.55197381906128     -0.04024336166979     -1.10250455055837
  H   -1.64328544378168      1.48928055570371     -0.93667487989905
  H   -3.16279842704300      1.25383278467868     -0.05171735499794
