12
Coordinates from ORCA-job orca
  C   1.39640991220853     -0.49375805607919      0.00473391120268
  C   0.03029458997934     -0.12535458960864     -0.52746340350347
  C   -0.70456163175967      1.07131711862475      0.01823496734904
  C   -1.19809648745439     -0.32304367668795      0.32218805031004
  H   2.18960564508270      0.07370658926022     -0.49455074053707
  H   1.60978065845162     -1.55905996883444     -0.13695609264799
  H   1.46700926605017     -0.28387638813299      1.07780069521914
  H   -0.09831461063812     -0.31163453549616     -1.59135135345939
  H   -1.28409655163610      1.68192096275946     -0.66587544492234
  H   -0.23467622790287      1.63322238286221      0.81951084370785
  H   -1.06072240530353     -0.70520104486139      1.32899343998173
  H   -2.11263315707768     -0.65823879380588     -0.15526587270022
