25
Coordinates from ORCA-job orca
  C   -3.24386702936427      0.75680803105050      0.13483533409332
  C   -2.11968154581312     -0.13911681414632     -0.37628189432502
  C   -0.80314353812984      0.54029048265132     -0.78743745152695
  C   0.24405894489906     -0.59597298162927     -0.72617282000348
  C   1.71347573426365     -0.15338529355277     -0.80862913922749
  C   2.19338859871541      0.72553082620204      0.32134049553164
  C   3.57613388078517      0.67076055106767      0.81218471538712
  O   2.51407933566136      0.07721207556117      1.56096046264529
  C   -0.16083039850140     -1.38226871253732      0.53627848181106
  C   -1.67467922804636     -1.20190171845700      0.64162815345685
  O   -2.40965083134275     -1.78449384848691      1.40071749711762
  H   -2.89605404135991      1.38676949662917      0.96000293437171
  H   -4.07151323734666      0.14743228243967      0.50623864609490
  H   -3.62047312912455      1.41243533424406     -0.65545922389020
  H   -2.48917100181685     -0.71844486365670     -1.23729751567825
  H   -0.56073706176415      1.32497197206207     -0.05972231812116
  H   -0.85006226426169      1.01373482771085     -1.77234058991357
  H   0.06280746407583     -1.24467435444990     -1.59383811076425
  H   1.86382845398433      0.39231353782497     -1.75012821698318
  H   2.35742315981360     -1.03908041103724     -0.85109585051847
  H   1.66493223859859      1.67055758214301      0.45243887425204
  H   4.02907268450431      1.55352828876041      1.26056001000115
  H   4.27659596671959     -0.02905608143334      0.35838099452335
  H   0.11605239053289     -2.43910603610428      0.53022428488506
  H   0.28801545431776     -0.94484217285585      1.43587724678090
