14
Coordinates from ORCA-job orca
  C   -2.30371710490578      0.05099463404157      0.13022853511567
  C   -0.96018047646848     -0.07082164667618     -0.56339605776793
  O   0.05579682974922     -0.13210367766727      0.44082359686630
  C   1.31652561505054     -0.31722526881327     -0.06444769618956
  C   2.44161684986665      0.27192382451220      0.65100346613522
  O   1.98578606636900      0.81723692297843     -0.60082599461219
  H   -2.48258316047487     -0.80915813293874      0.78081289233889
  H   -2.33978085358426      0.95714347018646      0.74036946310527
  H   -3.10696805313844      0.10005440456996     -0.61046251125683
  H   -0.91971984225772     -0.97828961844244     -1.18545882228570
  H   -0.77344055595547      0.79062490554263     -1.21791584439559
  H   1.43914506378681     -1.22521761597194     -0.66132878453950
  H   2.22512363648415      0.88120251801293      1.52629120388084
  H   3.42239498547864     -0.20023271933433      0.63430655360510
