22
Coordinates from ORCA-job orca
  C   -3.74905593087666      0.19339896610180      0.05494331339395
  C   -2.82296981800448     -0.82836371416059     -0.60164424055816
  O   -1.52543524973895     -0.32994871836396     -0.87914874553167
  C   -0.68959002733509     -0.19980597952107      0.24994066612610
  C   0.68958985353088      0.19979952825963     -0.24994046638888
  O   1.52543521386092      0.32994208754376      0.87914855226300
  C   2.82296732956069      0.82836399518592      0.60164472877225
  C   3.74905805940730     -0.19339379033098     -0.05494347038110
  H   -3.40277420645406      0.48013132123066      1.05172290150738
  H   -4.75344750440330     -0.22898365864422      0.16261806343883
  H   -3.81839534863678      1.09652550579814     -0.55808345555574
  H   -3.23137840479607     -1.12645233695939     -1.57263156592210
  H   -2.75485362315052     -1.73669686764102      0.01864317849066
  H   -0.62059806355412     -1.15140663050538      0.80191480994565
  H   -1.05259502025535      0.56312108595173      0.95382834863309
  H   0.62059805652445      1.15139995765870     -0.80191502780505
  H   1.05259472374795     -0.56312774333207     -0.95382804243902
  H   3.23137494239217      1.12645373849464      1.57263206719697
  H   2.75484672063381      1.73669709819227     -0.01864224336415
  H   4.75344732742695      0.22899421771471     -0.16261898392707
  H   3.81840296911346     -1.09651985114815      0.55808334782362
  H   3.40277700100680     -0.48012821152514     -1.05172273571854
