13
Coordinates from ORCA-job orca
  N   -0.84782388699813      1.13907931076258      1.15586144393964
  C   0.04687455648992      0.45197060074323      0.41168282515901
  C   1.47105828239065      0.58068222434643      0.35836375752917
  C   1.89267783049677     -0.34563808843141     -0.54981316995205
  O   0.87614073527885     -1.04625436928840     -1.07512327600655
  C   -0.28131211910074     -0.56108950418079     -0.48538220187257
  C   -1.56265174125539     -1.08328349158005     -0.80953964661196
  O   -2.59881158501131     -0.66103184410515     -0.29314922914304
  H   -0.56421511867117      1.86429911508594      1.78734682687726
  H   -1.82246112772864      0.89691277114788      1.04890352044971
  H   2.09203396199000      1.26447978525415      0.91571714175213
  H   2.87935582685399     -0.60083120510304     -0.90509377773150
  H   -1.58086561473480     -1.89929430465137     -1.55977321438925
