21
Coordinates from ORCA-job orca
  C   2.40748889947051     -0.45370410562815      0.07406553744773
  C   0.95942282622250     -0.05381818258895      0.37304366929487
  C   0.01064234310820     -1.26123573280979      0.29833109734903
  C   -1.44986083887192     -0.87364628815395      0.57283085777761
  C   -1.91958370627878      0.24961837698790     -0.36259403642827
  C   -0.98241507154700      1.46372330488627     -0.29136230712744
  C   0.47598946598336      1.06626228685007     -0.56244650942597
  H   2.50168308867775     -0.84784367909829     -0.94407638404518
  H   2.75689727539569     -1.22832616829020      0.76421921778836
  H   3.08337133316865      0.40282320875180      0.16297901973815
  H   0.92127522224939      0.33417567912467      1.40218168967670
  H   0.08557962688455     -1.70977149004700     -0.70263903266759
  H   0.33568870923539     -2.03261554098917      1.00626822044066
  H   -2.09786241523849     -1.75064980550432      0.46826574899660
  H   -1.54551434645041     -0.54023836763889      1.61484593160811
  H   -2.94475224922929      0.54620717760006     -0.11545415211974
  H   -1.94513523380237     -0.12662669416834     -1.39411455992016
  H   -1.30147889690553      2.23205493104269     -1.00394618445398
  H   -1.05360046774094      1.91762956152252      0.70616026268652
  H   1.12994052081854      1.94061089916925     -0.46334544042219
  H   0.57222291485020      0.72537062898181     -1.60321264619382
