22
Coordinates from ORCA-job orca
  O   -2.47696796623677      2.21986951870972     -0.82503682563604
  C   -1.49528169897067      1.87987312950686     -0.21666712051067
  C   -0.18458498656335      2.63023146193459     -0.05136843266447
  C   0.82610485561310      1.79006415881392     -0.13481224963349
  C   0.97923791483966      0.47156938989610     -0.08213345701605
  C   2.01061484942833     -0.22923231025077     -0.88064843754755
  C   2.79895108324131     -1.36110052450236     -0.34580016751289
  O   1.79518323578049     -1.57312840524849     -1.33189643929036
  C   -0.09688660642535     -0.17739732181797      0.78618042240086
  C   -0.83195982474368     -1.43034237380040      0.16635542055718
  C   -2.16692495083744     -0.65310319975369      0.12529220257181
  C   -1.45395096333544      0.61211020800434      0.67460541940384
  H   -0.17925779170697      3.64083241138449      0.34369206614216
  H   2.50428809830976      0.41254595857337     -1.61025428732908
  H   2.57172844146371     -1.74969154851457      0.64556146512693
  H   3.82623390243890     -1.49898076901335     -0.67946299383165
  H   0.22288737379656     -0.35264480549466      1.81793251401119
  H   -0.82327807374407     -2.29302363631106      0.83525911675911
  H   -0.44380272164401     -1.74289637680231     -0.79903664699632
  H   -2.94260380717995     -1.04497792573187      0.78530466177783
  H   -2.60171234613907     -0.50547459451078     -0.86521484991561
  H   -1.83801801738507      0.95489655492888      1.64214861913327
