25
Coordinates from ORCA-job orca
  C   -2.85212709086417      0.13033164202537      0.51628888752521
  C   -2.02306606856786     -1.05370471227055      0.00060520439594
  C   -0.58963494518718     -0.98064666909430      0.55274134755906
  C   -0.00978621757198      0.39829267830697      0.30086766654477
  C   0.76034579987966      0.69672795678221     -0.96864649736112
  C   1.45802397298067      0.69400975018525      0.37762684243586
  C   2.47236325099615     -0.34959879887616      0.72484983827249
  C   3.63173656262547     -0.62523992807222     -0.13538646408365
  O   2.52552899418095     -1.53067369920385     -0.08251460306455
  O   -0.81131188623112      1.43825847338620      0.80689097308415
  C   -2.11944906392538      1.44298359562863      0.24029282092790
  H   -3.84131303664298      0.15487350513248      0.04516311973965
  H   -3.00815459048692      0.03315597567939      1.59755910777804
  H   -2.49024541012765     -2.00424042172584      0.27780338003808
  H   -1.99075346908547     -1.02558452973700     -1.09618673136711
  H   0.04540443893100     -1.74719279623569      0.10352817546632
  H   -0.60562235610924     -1.16014380795823      1.63564640706923
  H   0.97339296210966     -0.13224230370862     -1.63533375501988
  H   0.59828618294272      1.65613270243538     -1.44657083828447
  H   1.68355125697269      1.67192051289437      0.79624808452154
  H   2.58793109635138     -0.54782873182689      1.79205393482196
  H   3.73742078798459     -0.07752051124448     -1.07017675207386
  H   4.55836750292918     -0.99582125705317      0.29946967375568
  H   -2.63663296658019      2.29510351037770      0.68945901344030
  H   -2.05425570750398      1.61864886417305     -0.84580783612153
