16
Coordinates from ORCA-job orca
  C   -2.24253245080183      0.11997882022744     -0.82806226720391
  C   -1.41461158650661      0.78622494802433      0.27428766139661
  C   -0.27998622092885     -0.08913710453428      0.79658788103318
  O   0.62883260656344     -0.27307158614581     -0.28072242006684
  O   1.66364370151962     -1.17179540295672      0.19441025158615
  C   2.87555167692075     -0.44952570872534      0.12256577898459
  H   -3.04837218134002      0.77849374793470     -1.16504106986756
  H   -1.61973238913410     -0.12644589140682     -1.69111077094918
  H   -2.69810949376470     -0.80901078881332     -0.46925582579766
  H   -2.05307199684156      1.03582300017520      1.12982838478565
  H   -0.99172732557309      1.73089656127003     -0.08655885676519
  H   -0.65771770516673     -1.06449570862492      1.13240380473943
  H   0.23116342486504      0.39058909859664      1.64307311924343
  H   3.09561642599139     -0.13512249330861     -0.90445831869448
  H   3.64235379393557     -1.15270333628805      0.46120483548013
  H   2.86869972026166      0.42930284457552      0.77985181209565
