9
Coordinates from ORCA-job orca
  H   -1.66028288904834     -0.09840653471107     -0.69704184922809
  C   -0.91578837828956      0.18679609668246      0.05230811431534
  C   0.41750202270539     -0.47056498195688     -0.26527738907406
  H   0.35487458955988     -1.56571200119845     -0.22108650530437
  F   1.68123153740316      1.19771986726350      0.60455784737384
  H   -0.81328727695597      1.27352459142170      0.04150895781963
  H   -1.27555338199335     -0.12116112011320      1.03726876823505
  O   1.42040405368109     -0.21314455278670      0.70516995401584
  H   0.79089972293769     -0.18905136460137     -1.25740789815317
