13
Coordinates from ORCA-job orca
  C   1.49267280220862      0.25657779467124      0.03140943552330
  C   0.46327860373389     -0.85979497458930     -0.20203802115408
  N   -0.70558028011477     -0.51466328235986     -1.00681498035028
  C   -1.59825649553620      0.47223164313580     -0.41513526289520
  H   2.33838004013447     -0.11363968670802      0.62074793375327
  H   1.88822409962380      0.62934890709933     -0.92026969465140
  H   1.06161014256632      1.10529995516168      0.57040953738081
  H   0.09876743156025     -1.22925293936911      0.76495315137852
  H   0.95857688602975     -1.70969283207188     -0.68657309839684
  H   -0.41102692072221     -0.20909917503186     -1.92871122743587
  H   -1.98823467377864      0.08244793303805      0.53203916151749
  H   -1.14661514064385      1.45678240232261     -0.20551941193718
  H   -2.45179549506142      0.63345425470133     -1.08018452273254
