25
Coordinates from ORCA-job orca
  C   4.30280523479309      0.03527649673909      0.06304847844618
  C   2.85384610274284      0.32723258827347      0.45341588293112
  C   1.87634230494454      0.02210110578317     -0.67187674169902
  O   0.56931701597862      0.32431272463905     -0.23389695904483
  C   -0.42739466480897      0.07862621310743     -1.20730157703433
  C   -1.78475130789181      0.44074183188615     -0.62515179201287
  C   -2.16579378806153     -0.40219337995777      0.59495983617329
  C   -3.55179131144498     -0.06705158939010      1.14262711026207
  O   -4.59231230523506     -0.25839640136748      0.18950017560846
  H   4.98714961525655      0.25675756771395      0.88687338200959
  H   4.61536188959747      0.63874658418303     -0.79617488861583
  H   4.44110878722075     -1.01765048247130     -0.20616760606125
  H   2.56778428640486     -0.26317363442415      1.33139049937370
  H   2.73907878711957      1.37974032951795      0.73641828472604
  H   2.12603094432443      0.61465339071908     -1.57005489157355
  H   1.94742930908655     -1.04005532506188     -0.96683517957592
  H   -0.40633928417604     -0.98296076131160     -1.51198621614513
  H   -0.22693979965337      0.67465352878300     -2.11351449487554
  H   -2.54825001849022      0.32433333201748     -1.40211497549366
  H   -1.77457612473618      1.50274761923396     -0.34966099768394
  H   -2.13371650370603     -1.47019618888774      0.33122308690439
  H   -1.42401277344802     -0.26192866302804      1.38936517786789
  H   -3.74602407998134     -0.64963527818606      2.05610461021603
  H   -3.60461980475100      0.99195319486913      1.41791385901077
  H   -4.63973151108473     -1.19863380337983     -0.01381906371367
