17
Coordinates from ORCA-job orca
  C   -0.57432362629633      0.09027574862163     -1.50576204256413
  C   -0.26573789867517     -0.19486856978174     -0.04731537778170
  C   1.21458280930852     -0.40125916924591      0.25751987768894
  C   2.01097236133192      0.86511783774921      0.02531782915050
  O   2.93395008643951      0.97039023560255     -0.74350414788227
  C   -1.11890273662669      0.47080655868529      1.01003854614873
  C   -1.26499277227794     -1.00607367559475      0.74052388977658
  H   -0.25795593764428     -0.74353591106847     -2.14230666890814
  H   -1.64653765055631      0.24101153343953     -1.65869117094674
  H   -0.05577645532632      0.98851416952200     -1.85840293252742
  H   1.33328950245583     -0.67480158635571      1.31448899293243
  H   1.63992701631806     -1.20252535827347     -0.35533871593433
  H   1.66716082090675      1.73682780191902      0.62848421261119
  H   -1.91211889204340      1.13461135788559      0.68293847661315
  H   -0.65177919354360      0.77509792675789      1.94103597950674
  H   -0.89432874523971     -1.70306331673335      1.48483355978714
  H   -2.15742768853085     -1.34652658312929      0.22613869232933
