15
Coordinates from ORCA-job orca
  C   0.57918895455385      1.15211421156771     -0.01226516637404
  C   1.23939675080353     -0.20838453818330     -0.27816068639476
  C   0.27448550970698     -1.20101507870574      0.38957357249773
  C   -1.13675320478596     -0.62469405282678      0.11339383183443
  C   -0.92798621790080      0.88383129744871     -0.21357448344935
  H   0.95697288373775      1.95132342287285     -0.65667099440989
  H   0.77436754867151      1.45767462777791      1.02282497951226
  H   1.28793135188248     -0.39662257938940     -1.35821741845462
  H   2.26115870258992     -0.27695289051742      0.10704134980717
  H   0.46698488618455     -1.22591059771607      1.46842015339984
  H   0.39057224477813     -2.22552315318644      0.02453220051199
  H   -1.60417302395758     -1.13779434433619     -0.73238983747376
  H   -1.80338767502928     -0.76983584899638      0.96792556138682
  H   -1.21009512123670      1.08775246241893     -1.25150459422419
  H   -1.54866458999837      1.53403706177161      0.40906953183035
