22
Coordinates from ORCA-job orca
  C   -2.63393515039113      0.81499227839960     -0.06122459705466
  C   -2.08718869587800     -0.57126431266733     -0.39484373109391
  O   -0.75626145477951     -0.52692887118279     -0.88109176509860
  C   0.26873981978997     -0.52712574456492      0.11355014236830
  C   0.59234944990304     -1.95828944331573      0.55004155267281
  C   1.47150040077798      0.16646233989012     -0.47891880704265
  C   2.45259222670669      0.87527573250879      0.41977081262614
  C   1.55050374658772      1.66686735863434     -0.49399854532602
  H   -3.68475507712159      0.74990016733525      0.24096205012944
  H   -2.56374286996997      1.46975725456482     -0.93427040814177
  H   -2.07957758983453      1.28053736142464      0.75941620860363
  H   -2.16518451499573     -1.23342656440076      0.48045182079692
  H   -2.68427239164578     -1.02672932543444     -1.19213371903120
  H   -0.06523155329060      0.05161459704177      0.99012371706230
  H   0.92657638211247     -2.54336169528968     -0.31210148654088
  H   -0.28477848966111     -2.45323253219754      0.97662365410037
  H   1.38505028363419     -1.96365991125805      1.30433570245388
  H   1.88585622077302     -0.35124474308512     -1.34086317876335
  H   3.50851640533711      0.81445179437208      0.17996869080482
  H   2.24581661589128      0.89651069693371      1.48539974679357
  H   0.72806697913159      2.21925274373229     -0.05106918364066
  H   1.98935725692290      2.14964081855894     -1.36012767667850
