24
Coordinates from ORCA-job orca
  C   -1.64136761290494      2.08214488745963      0.34920719774297
  C   -0.83171641621590      1.61734441448489     -0.86566917074808
  O   0.51036269954700      2.03404598955465     -0.62151463375795
  C   -1.33621964303868      2.31629789605796     -2.07592512101289
  N   -1.72093028267210      2.84553239813908     -3.02940083602977
  C   -0.94363705881917      0.09401638062875     -1.13092209433883
  C   -0.55636050427955     -0.84452104516807      0.02181539709430
  C   0.94159564564307     -0.89903517518037      0.36255594711881
  C   1.22923087351936     -1.94211686847950      1.41343719691078
  C   2.42019208920173     -2.79686599118446      1.37482634666026
  O   1.14041720650726     -3.30974562693029      0.99693250589317
  H   -2.69188277668416      1.80308397543303      0.24493013623458
  H   -1.56944063070543      3.16662018265033      0.44741477273847
  H   -1.23649955834684      1.62693339073354      1.25438921427231
  H   1.05019955094101      1.80504729607271     -1.38726962146158
  H   -0.33450401478888     -0.13767818059357     -2.01441664841241
  H   -1.98015145451212     -0.10819272449841     -1.42269992880474
  H   -0.87153503159997     -1.85428587637878     -0.26376496736281
  H   -1.13339638552437     -0.59726274641519      0.92037271556466
  H   1.29341578208417      0.07475263576095      0.71659876166129
  H   1.51248429690701     -1.14090242479674     -0.54218418714657
  H   0.77876071750866     -1.75559872135908      2.39102905389890
  H   2.83449317218609     -3.19949286112288      2.29807667733011
  H   3.13648833604675     -2.68077420486816      0.56218228595502
