25
Coordinates from ORCA-job orca
  C   3.77193393156710     -0.14742083195627     -0.56894891712550
  C   2.82143301220673     -1.26334926272977     -0.12890133467243
  C   1.59613559216956     -0.75037183716704      0.61697250559535
  O   0.84331185292241      0.06517312105035     -0.26123970439744
  C   -0.22903751615986      0.76806779435227      0.34655783687455
  C   -1.37210696689655     -0.11510874012186      0.79565514135510
  C   -2.24466978135121     -0.80939064251079     -0.22463825566377
  C   -2.82660809575839      0.28551401236199      0.63115603091371
  C   -3.27306518970091      1.60135714734505      0.03090273733154
  H   4.16963543794490      0.39605384448076      0.29523579100611
  H   4.62170528436121     -0.54826408535700     -1.12930777851343
  H   3.25150743648473      0.57161479582920     -1.20592692214550
  H   3.34257029322499     -1.97419913057383      0.52376276509605
  H   2.47884451329381     -1.83054271283202     -1.00198398920657
  H   1.90205913047743     -0.16760256667079      1.50418966335349
  H   0.99164298091478     -1.59677130475214      0.97715641655624
  H   0.14887215468761      1.35433917285249      1.20073136480978
  H   -0.56716569315058      1.47804092529863     -0.41213438914227
  H   -1.16634096923883     -0.68602220179034      1.69715482063015
  H   -2.53906793839397     -1.83709225744498     -0.04401170256917
  H   -2.05242033510739     -0.57599820690558     -1.26728631314932
  H   -3.46630496772508     -0.05319330681770      1.44276912967978
  H   -4.30777988570747      1.52763842424910     -0.32063917029955
  H   -2.66363362681645      1.89133997529347     -0.82891930243205
  H   -3.23144965424858      2.41618887451682      0.76194557611514
