22
Coordinates from ORCA-job orca
  C   3.28467446984722      0.65873143390691      0.32402615454531
  C   2.36987130371791     -0.23839012752766     -0.51142649242844
  C   1.01982174333940      0.41324487595719     -0.82146450906358
  O   0.27983777763300      0.72667550336635      0.35083049501233
  C   -0.53781713530362     -0.32350799171972      0.84636522464469
  C   -1.89157863172101     -0.38990935693138      0.17761136449648
  C   -2.98435926495579      0.54876440480406      0.61072531827739
  C   -3.07171157683266     -0.91652150629880      0.95576912296047
  H   3.51989693206183      1.58701549503474     -0.20858904168677
  H   4.23011142506721      0.15975335021976      0.55666115660493
  H   2.80093702281159      0.93224672543833      1.26549694211070
  H   2.20184963608826     -1.18951577791961      0.00888183547106
  H   2.85068974206473     -0.49434410500167     -1.46460986638000
  H   1.17646296600835      1.36572889892840     -1.34141965146118
  H   0.43294594136001     -0.23015830714432     -1.49303656772654
  H   -0.67032428067377     -0.12442810171819      1.91634817667889
  H   -0.02223800415124     -1.29199828506896      0.75926819998339
  H   -1.86427573454670     -0.64404079498842     -0.87900515220874
  H   -3.65757381990566      0.93859216190270     -0.14483027735886
  H   -2.75818228740332      1.25099816408037      1.40648172837436
  H   -3.79995300623823     -1.52837499946515      0.43495525867020
  H   -2.90908821826750     -1.21056365985493      1.98815058048392
