16
Coordinates from ORCA-job orca
  H   3.28361949938034      2.22879795423670      0.11221846010963
  H   3.53124771615722      0.38990760673752      0.05685761670329
  O   2.85824304619628      1.16260729090917      1.90374499012460
  C   3.05469422785983      1.24908648851428      0.52975929395358
  N   -0.34543489297947     -1.71722447322624      0.20456141754678
  C   -2.35961173320405     -2.71951157515403     -0.55650050512347
  N   -3.06207094460901     -3.61903515225798     -0.74834726223894
  C   0.19096242126097     -0.41939947169822      0.35497011921583
  N   1.69194905823664      1.08509769194202      0.99666819930350
  C   -1.51947077259629     -1.58134616083473     -0.33096567664294
  N   1.32475028581648     -0.26661960073531      0.92487102147787
  N   -1.26330816187734      0.77646240958700     -1.55449500845908
  C   -0.70103173425296      0.62235812873887     -0.22088754124767
  C   -1.95068973307592     -0.22986357393237     -0.72791779680050
  H   -2.69345916544082      1.92923275232225     -0.00327066115401
  C   -2.04038811687186      1.10944868485108     -0.24074866676846
