14
Coordinates from ORCA-job orca
  H   3.04677566832141      0.59031890251362     -0.37716880162223
  O   -0.76433707300546      0.21447693688261     -0.73227817951263
  C   -2.16857445969421      0.30535570400968     -0.63009484967346
  H   -2.51776879299827      0.11561753301397      0.39640267909161
  O   1.59521171055607     -0.39012597291374      0.75057024876039
  O   1.10703273864505     -1.07680128637712     -0.43494154450971
  C   2.21756806792406      0.80340630269131      0.30714606319755
  H   -2.67494360448375     -0.40376474924131     -1.30302030822588
  C   -0.27816217220875     -1.05651113703582     -0.38049613956661
  H   -2.44915334593634      1.32012944639723     -0.91601229919827
  H   1.49984540616483      1.47658843424323     -0.17140474828217
  H   -0.58914480980420     -1.81947640095479     -1.11391946203103
  H   -0.63340064830376     -1.33956211384747      0.62375138561576
  H   2.60905131482333      1.26034740061861      1.22122595595669
