16
Coordinates from ORCA-job orca
  H   -3.18178352648121      0.03993221412317      1.88766694700766
  O   -2.55502956879095      0.56705299701104      1.38019271138171
  N   -2.66779322967500     -0.04197112157279      0.07319023151054
  C   -2.47800312629503      1.11745001358524     -0.90747704859854
  O   0.00049640131962     -1.87350589706656     -0.04072053963322
  C   -1.39506987016797      0.32954827744602     -0.60122265191253
  O   -0.11188706033320      0.39992559184209     -0.19868120632290
  H   -2.89839647516384      2.10339488394635     -0.98707767390668
  C   0.50742750309892     -0.80262834380806      0.07055778045215
  O   -1.91740871206966      0.24276876068376     -1.92812382252126
  O   2.82559261444181     -0.13997236543198     -1.36223487365078
  C   1.90229184460080     -0.55852188781134      0.59198105718724
  C   2.81983938478403      0.46256915122461     -0.06252258399149
  C   3.08597675515939     -1.01106293750251     -0.25365752535483
  H   2.01637561734838     -0.68725733822994      1.66509154350416
  O   4.04736844822390     -0.14772299843912      0.35514665484879
