22
Coordinates from ORCA-job orca
  C   -1.62511520494985      0.07023225378250      1.46349453351654
  C   -0.76043633178522     -0.09219855381146      0.21066237470362
  C   -1.62754121084584     -0.57125713483954     -0.96667904334590
  C   -0.03906316576831      1.22975898159125     -0.19208146628601
  C   1.24829498629086      0.80522998171404     -0.89513984779064
  C   2.43416124729443      0.46431574205515     -0.02958283552713
  C   1.52797103602919     -0.63748422187875     -0.51548902204715
  C   0.41295402586751     -1.09599502188077      0.42180717386179
  H   -1.02750379548207      0.41757960295195      2.31328980303028
  H   -2.42933538627740      0.79668123265943      1.30088857794247
  H   -2.09385258301839     -0.87819567955027      1.74910039130910
  H   -2.42484705928298      0.14722340784206     -1.18607184865782
  H   -1.02720914056393     -0.69272272434965     -1.87441301052329
  H   -2.09641801322493     -1.53611977906849     -0.74435030842483
  H   0.17508773303510      1.83503396074281      0.69742232691522
  H   -0.67293033135417      1.84228040334349     -0.84077529478769
  H   1.44093601926828      1.16503756115569     -1.90034065298514
  H   3.42387703375794      0.54110719605329     -0.46824898367236
  H   2.39378017321987      0.73292364512763      1.02348442952577
  H   1.92603883739808     -1.33849921100293     -1.24142062716130
  H   0.74390509440770     -1.08322573072949      1.46766014663848
  H   0.09724403598413     -2.12170691190794      0.20678318376601
