13
Coordinates from ORCA-job orca
  C   2.93493737099913     -0.22670968435285      1.09009966230327
  H   0.11294266612300      0.95291147603855     -1.46583986865138
  C   2.17684246242104      0.05562996852156     -0.02573796157195
  H   2.37170612100391     -2.40562196494859      0.92831313624757
  C   0.76344017888913      0.03337720909623      0.23538018842850
  C   2.07079161403896     -1.38402728911271      1.14514963061614
  N   -0.16265411884590      0.58034094754166     -0.55798203208652
  N   -1.44999134142999      0.72672525121989     -0.15453784854569
  O   -0.33043926769468     -1.61101199871371      1.72960849661962
  C   0.61703241462968     -1.03618885545487      1.26295649268972
  N   -3.38683720089735      1.40166499828189     -1.02588017175074
  O   -2.09586878415601      1.17143648339713     -1.19538525577869
  H   -3.62190211508093      1.74147445848582     -1.96614546851987
