15
Coordinates from ORCA-job orca
  H   -1.47875469239125      2.71024647675080      0.29067528460319
  H   -2.19082979285096      1.22382663991468     -0.34922528265339
  O   3.40168446106010     -1.71648363792717      0.56376642125273
  C   -1.64624784011481      1.64780670204968      0.49418869983503
  H   -2.29087120355524      1.58632029400752      1.37741902942504
  C   -0.35390387704097      0.94326540971590      0.72453854494490
  N   2.32168941246078     -1.45117410863844      0.06245059471975
  H   -0.28774896224031     -2.61896466803903     -1.78112633816289
  C   0.64485138497589      1.11896661920164      1.64749986799572
  N   -0.02851871604381     -1.68802236913977     -2.13459607698739
  C   -0.27111881281973     -0.75596240376795     -1.14637241995521
  C   1.54844075958895     -0.46044438432735      0.55619298074155
  C   0.23603630248604     -0.14217126468323     -0.06286773069919
  O   -1.33637657299162     -0.82225670659951     -1.91230539273389
  C   1.73166614947693      0.42504740148224      1.66976081767406
