17
Coordinates from ORCA-job orca
  H   2.91998072037178      0.08267396755622     -1.18610240886371
  N   0.51112942159508     -1.63931271774417     -0.46713148289801
  O   2.48251607945891     -1.00861127616639      0.61997736193803
  C   0.65466725719731     -0.19179899654665     -0.62080446594463
  C   2.17138413752468     -0.41520358079552     -0.58040730675104
  N   -0.12394353724557     -2.11488632638987      0.67726376856288
  N   1.96797951565198     -1.87269259537987     -0.49871389214578
  C   -2.17716997527530      0.72679614144807      1.26030177261723
  O   0.14977174514568      0.10798554091500     -1.95250660570442
  O   0.03091689336716      0.54517236499777      0.31359990283412
  C   -2.48670660360999      1.94585300426330      1.49282678320695
  N   -1.05009404350750     -1.43539962366041      1.13687079167987
  C   -1.29961897576025     -0.08547342751268      0.51251520478931
  N   0.59992490323316      1.28553711083798     -2.35763659159667
  O   -2.88726090728945      3.01413895237534      1.78589766204962
  H   0.23326746048953      1.33362911964120     -3.31899841095238
  H   -1.69674409134723     -0.27840765783934     -0.51307008282138
