22
Coordinates from ORCA-job orca
  O   -3.90123271368587      1.63789786664072      0.60657018385997
  O   -2.70228797463751      2.28232336079888     -0.01979117375206
  N   -3.30885236598420     -0.87712651870997      0.54951405511411
  H   -1.64590057651191      0.15953629952732     -1.76940280753929
  C   -2.24717134433943     -1.19113730883030     -0.15186565924630
  C   -1.39203631638287     -0.03227266759591     -0.71961413234703
  C   -3.13487179121063      0.47521904457391      0.62271985457422
  C   -2.01841308521764      1.04144286193669      0.12487494965313
  N   -1.55537060498627     -2.39093465840000     -0.22392311191554
  C   -0.02094936570106     -0.70533545265170     -0.61835094139949
  H   0.86565098328081     -0.47172195649463     -2.70519882221286
  N   -0.34962606017751     -2.19231681061956     -0.53788684688911
  C   1.05830997906509     -0.44253719741148     -1.63375252471661
  C   0.74632301538507     -0.35434300113977      0.68588293371534
  H   3.97571560764703      0.98386439339749      0.62553197649343
  N   2.22390750218429     -0.19876404554558     -1.18204108759906
  O   0.23142564640529     -0.16087993661198      1.74959591901155
  C   2.22149127466000     -0.23004188007352      0.28561361860505
  H   2.46494126186143      1.90793987290927      0.56104444375365
  H   2.72799214222241     -1.15132046868895      0.60579484933780
  C   2.92114072045748      0.97685277686517      0.90718685524542
  H   2.83981306566598      0.93365542612392      1.99552446825369
