13
Coordinates from ORCA-job orca
  O   1.62148905265333      1.36046775497187      1.25346710441822
  N   2.46720324652131     -1.59860484794740     -1.68975753692225
  H   -1.16940108572901      0.50651609160779      1.85943750912919
  C   0.84044860603531      1.02219686530678      0.43614401254221
  O   -0.20445582368429      0.65910822817786     -1.38972587132746
  C   1.61313189745549     -0.97909684563567     -1.21664727279143
  C   -0.48207840629355      1.42636412331145     -0.23547099234320
  H   -1.25300511847194     -1.46958243474013     -0.53190933946479
  C   -1.21162121729971      0.36267718795545      0.78526502401228
  C   0.56309103685661     -0.23416165245275     -0.56617548884521
  H   -0.34154650697489     -1.58998460373311      0.99998850624808
  O   -1.80689431280652      1.46011089082346      0.11120333899300
  C   -0.63636036826214     -0.92601075764560      0.18418000635135
