17
Coordinates from ORCA-job orca
  H   1.54423602522196      2.58129139322250      1.50886593223668
  N   0.88807810873537      1.86954634252837      1.21654511590092
  C   1.39804825286430      0.76958426950886      0.58421738979153
  C   -0.30596378919611      2.37438033825823      0.68286290381169
  N   2.33724877246751      0.28693009712485     -0.12228595271839
  C   0.95117495887707     -0.35700306653667     -0.15026211087928
  N   -1.09565096520149      1.40636338645373      0.26874116576881
  O   -1.92118706749738      1.48316522769069     -0.94184704171529
  O   0.83277341673115     -1.58487024994126      0.50853459159175
  H   2.20311874669719     -2.58952751379005     -0.33165646458094
  N   0.00913153076140     -0.11481599626298     -1.20374107697187
  C   -1.23443889384094      0.27204736401198     -0.60191013585139
  O   1.23928952939904     -2.60667422211787     -0.44747000120641
  H   -2.97012873584779     -0.50819847637862      0.08067536692693
  H   -0.10492146521368     -0.92140902367420     -1.80992954195793
  N   -2.10846866285470     -0.78855157763955     -0.36858664114959
  H   -1.66233876210291     -1.57225829245801      0.09244850100278
