16
Coordinates from ORCA-job orca
  F   -2.35376518820560     -1.69063250218155     -0.43998073738096
  C   -2.50859653193030     -0.37419721063696     -0.25155001249953
  F   -3.53594671394875     -0.19679852650450      0.59968938527377
  F   -2.84700597083471      0.17224665369609     -1.42499661950760
  C   -1.25812184209625      0.26129437023579      0.33243419863317
  O   -0.21555557676727      0.10251049187955     -0.59243355737355
  C   1.01032486001396      0.59628758318225     -0.13303532928534
  C   2.22759425274904     -0.01720678642726     -0.73504009703071
  C   1.88238287545576     -0.29251328829884      0.71581173180327
  H   -1.47995116262749      1.32038661717145      0.53100178835861
  H   -1.04382298584446     -0.23300339438365      1.29048081126661
  H   1.00656477279608      1.66759944109355      0.07135165938653
  H   2.06154850859168     -0.81944482277582     -1.44464440498542
  H   3.06976547781220      0.62631233446101     -0.96225928438365
  H   2.48760639255081      0.15658790373358      1.49553027682069
  H   1.49697783228530     -1.27942886424469      0.94763919090412
