6
Coordinates from ORCA-job orca
  H   -0.50042008760445     -0.55172403510963     -0.96122197719885
  C   -0.35545557745643     -0.00265816179206     -0.01941827779623
  H   1.58011901940100     -0.15607471088314      0.07471395303563
  H   -0.59708868557013     -0.67707829574918      0.81495208550430
  H   -1.06663579449767      0.82657980503280      0.00032408628234
  O   0.93948112572768      0.56095439850121      0.09064913017281
