13
Coordinates from ORCA-job orca
  H   1.93823204849429      1.30682377772895     -1.25078020578800
  H   2.23006304498761      1.36524700343223      0.51148723919755
  H   3.28862414338004      0.39078713516590     -0.53584649029113
  C   2.26325644822940      0.73419031626375     -0.37973832449090
  C   1.29940262010780     -0.44717655103036     -0.18615181707679
  C   1.94404376968108     -1.58990397090921     -0.24400547614389
  H   -3.90522398830122      0.02764964471656      0.39100190933969
  C   -1.33761640576028     -1.13414910623966      0.14379773582897
  N   -3.19339959228470      0.75456106967372      0.29265338916104
  O   -1.59761470045923     -2.29363027772837      0.19873619769314
  C   -0.10873967043455     -0.24200423423713     -0.00988067886238
  N   -0.76515919079363      0.88979473845648      0.03345683399641
  C   -2.05586852684662      0.23780845470711      0.18442968743628
