20
Coordinates from ORCA-job orca
  H   -2.47335205510274     -1.18952619593604     -0.73571168234462
  H   -0.97524876145157     -1.85611511888203     -1.42962872177200
  C   -0.77532507338536     -1.25550664600960      0.66315313304303
  C   -1.38948371904379     -1.07255147402798     -0.79090867337167
  O   1.35594666533814     -0.71612518107042      1.85072946515274
  O   3.32750034068951     -1.62352632788571     -0.88690224798896
  O   -1.18994998337918     -2.03079122915295      1.46897741258207
  C   1.29666767898140     -0.30251625407447     -0.42925939012064
  C   0.46486298615501     -0.32999348130548      0.82103978714330
  C   -0.91420505493898      0.29845670865841     -1.13027758661414
  O   2.47226792328614     -1.41771654548622      1.17867221651108
  C   2.48133087598061     -1.16253152770014     -0.18385697129202
  C   0.34013448694015      1.24243658591167      0.66660996960980
  C   0.45240479980748      0.42691910186917     -1.36600385663642
  N   1.37282705376439      1.20622229822470     -0.52178721911498
  N   -1.65303795357411      1.35019884352044     -0.57201249356121
  O   -0.28956549735684      1.99652840527424      1.64308411703511
  C   -0.75565151789271      2.11352708108074      0.24242993840121
  H   -0.51554679423931      3.10840905349315     -0.11975055195701
  H   -2.63257540057822      1.21420190349850     -0.36859764470465
