12
Coordinates from ORCA-job orca
  H   -0.04218425994915     -0.70482903907059      1.33540506911905
  H   1.18279056819335     -0.95042386095797     -0.84393496087334
  H   -0.37787282659084      0.97718992249103      0.95195285663590
  C   -0.23059866884863     -0.01184590341448      0.50358868944727
  C   -1.48346367677210     -0.44826426614946     -0.25897049338300
  C   1.00816762105968      0.03891990415179     -0.38940574160510
  O   2.16572141692901      0.50340062948578      0.28730187290540
  H   -1.71739560095290      0.24972899556556     -1.06977585928220
  H   -2.35612084343299     -0.49486790875175      0.39841122979511
  H   -1.35323413921182     -1.43995247902140     -0.70558914300641
  H   0.84627086531523      0.74216608203987     -1.21374440498035
  H   2.35791954426117     -0.10916707636839      1.00476088522767
