22
Coordinates from ORCA-job orca
  O   -4.45074953087888      2.45181044031720      0.42345160179574
  N   -2.85801412690729      1.96253904739829     -1.94199089414758
  N   -2.43757348331261      1.08845799447517     -1.34288806366017
  N   -2.68060096891155      0.87183416700731      0.70810709988937
  C   -3.97232416066188      1.38837098924164      0.66665678768661
  O   -3.23322761937362     -0.40863559877014      0.93905776083744
  O   -4.59710534940118      0.15612283229954      0.88793122936115
  O   -1.70749055108255     -0.54191595022168     -2.88835887659617
  C   -1.59985130230464     -0.12456517322077     -1.79483863491885
  O   -0.87682050882093     -0.50401752469962     -0.74984561589545
  N   0.97438002482730     -1.40340785300388     -2.02917419838590
  H   1.18179561725734     -0.11971839990161      1.52566193361411
  C   2.67266013325279     -0.67095479716615     -0.01037793604192
  C   0.19085062434700     -1.35962878933496     -0.93843248542545
  C   1.74465895855042     -0.99164035414909      1.17619834874465
  C   1.82375771505711     -1.48714952286141     -0.89635089060417
  C   0.97183779290284     -1.92519906616293      0.16590161598916
  N   3.68663675655754      0.05397243618351     -0.28970328681688
  H   2.16553450569240     -1.52447358610436      2.02961025855649
  N   4.29673217750134      0.72455905246948      0.68996283481116
  H   3.79623819173391      0.91020368918724      1.55302240615820
  H   4.90867710397514      1.45343396701722      0.36026300504847
