13
Coordinates from ORCA-job orca
  O   0.02300120709599      1.06966307028432     -0.48797134357446
  H   3.29440442930251     -0.15078594738429     -1.08609167610990
  C   2.32830198784923     -0.04347274884057     -0.62295863382134
  C   1.37855210802186      1.00185011546283     -0.33418722547865
  N   2.03924130479928      0.55409839216353      0.88117389964564
  C   -0.60994126690645     -0.15055408947347     -0.37865774029765
  O   -0.20104439838175     -1.19568540059121     -1.18705928451747
  N   0.19462224818609     -1.16635246231114      0.28381100600253
  C   1.53355009407644     -0.71117315463662      0.35119916112067
  C   -2.09105282488157     -0.06101076697564     -0.10929469554945
  O   -2.78925237414928      0.95133883437779     -0.74099173370441
  H   -2.57044711463562     -1.03847510789200     -0.03211027813119
  O   -2.52993540037672      0.94055926581648      0.73394754441570
