19
Coordinates from ORCA-job orca
  O   -3.22120421769225     -1.62720553445600     -3.37430534340170
  C   -2.53521189053427     -1.47742875178313     -2.43991671813159
  C   1.11341926581631     -0.91604385849542      5.10170897534037
  N   0.73947503302392      1.28899478570344     -3.20949810671210
  N   1.42532547799966     -1.07911053356652      6.21011967385780
  C   0.74801814123120     -0.71552977936557      3.80351402665256
  H   1.49566563824600      1.64909966193866     -2.63725090056080
  C   -1.89699646005097     -1.47285369035141     -1.31210008889665
  H   0.98303485147186      1.08532827418730     -4.16606191815607
  N   -0.02897607319467      0.32055408277393     -2.66997365137364
  C   0.41584276120897     -0.53107098578262      2.65254567062147
  O   0.78614852858666      0.98813912631254     -0.62900498294895
  C   -0.88386633023156     -0.80375789098814     -0.72533299962680
  C   0.06732098870200     -0.24400101796584      1.30503763222228
  C   -0.05635302198766      0.21043437935965     -1.39206743642962
  H   1.33718642610772      1.51477249496953      1.24759920345560
  C   0.45570218316422      1.11075800820266      0.74694960032800
  N   -0.56789096382786     -1.11737254352281      0.60447412756443
  H   -0.37663933803932      1.81629377282974      0.88356323619541
