14
Coordinates from ORCA-job orca
  C   2.40809385459191      0.41259697300621     -0.09218854987069
  C   0.13162192334999     -0.09089023812268      0.19857120491784
  O   1.18969476924476      0.08334778024024     -0.71622427179045
  C   -1.11291699758153     -0.44487593370967     -0.56423116752871
  H   -0.99079607690316     -1.25877243445163     -1.27957796225640
  H   2.33787344942726      1.35750510971912      0.46880674293163
  H   3.15753959641453      0.52265341296797     -0.87833693712578
  H   -0.04723646188039      0.82830539686337      0.78054799780142
  O   -1.92086654444384      0.63684569512872     -1.03299104448346
  C   -2.44396056184899     -0.20021143872459     -0.00048182655117
  H   -3.27572434657096     -0.84175297918244     -0.28710608066180
  H   0.37003315201621     -0.89885290903847      0.91387755563193
  H   2.73563494530194     -0.37428354558940      0.60597636252922
  H   -2.53899070111773      0.26838511089325      0.97875297645643
