13
Coordinates from ORCA-job orca
  H   -2.87824507407296      1.14097675798486      0.77856427631178
  H   3.04662865726731     -0.17678155311021     -1.01500744802564
  H   -1.15294779345528      0.79439059753065      0.96686464055122
  N   -2.07308063889653      0.57531218114346      0.54017112095003
  O   2.72863334292847     -0.09919984395589     -0.10109826007703
  H   1.33061690462027      0.68719254421890      1.67861097995356
  N   0.73792562583093      0.56969679601044      0.85488772234920
  C   -2.18203363502022     -0.34589585133389     -0.35927942640441
  C   1.41462222134773      0.18534333639858     -0.15905066181019
  C   -1.00066546188210     -1.09445328002967     -0.68018544789559
  C   0.89793688309996      0.24163692652866     -1.56908075311197
  O   -0.24427842232006     -0.27854828587028     -1.79640187746724
  O   -0.62511360944753     -2.19966932551562     -0.47577886532373
