16
Coordinates from ORCA-job orca
  N   3.20480657664775      1.68063857897490     -0.53409343408335
  H   3.12489503049664      2.55305111811757     -0.00004879414398
  O   1.33537949046506     -1.26625121158834     -1.26338419642711
  C   1.48070258800323     -0.20452251889244     -0.72553284561796
  H   -1.54380723615422     -2.82586382773276      0.51540298728047
  C   2.07436427995584      1.11000263998737     -0.61071893016235
  N   -0.68916054863963     -2.31965569703251      0.74672370130773
  C   0.75016666048748      0.91403556939898      0.11355340825904
  F   0.78780604987728      1.02267401341241      1.46667749191576
  N   -0.44139782370743      1.38206751148388     -0.48375216982893
  N   -1.92903958943609     -0.37658961190379      0.28872292799051
  O   -1.08828558381832     -1.02734300048806      1.19832901215694
  H   -0.15450011900036     -2.17487628213167     -0.11312526633482
  C   -1.56448317212995      0.78361413978523     -0.32448191040179
  H   -2.90870587882836     -0.49077469278255      0.52340573983708
  H   -2.43874272421892      1.23979427139178     -0.79767772174725
