20
Coordinates from ORCA-job orca
  H   1.13943026821651     -2.11959191059855     -0.51121398876902
  N   2.83627559951612     -1.07882774967081      0.24464499679760
  H   3.84123620021646      0.82201036161431      0.65205448950429
  C   2.46349301188839      0.12118185246796     -1.17112612410534
  C   1.58329029388893     -1.19333770287278     -0.17220633594001
  C   2.91920254371085      0.39035579643249      0.28420731542180
  O   1.69632591143982      0.93888776330845      0.75552377547796
  C   1.11271258695275      0.20008991957247     -0.32760838436258
  H   -0.76625267138210      0.72937753265017      2.14271189123132
  C   -0.21320262135451      0.62648978373039     -0.88067480815263
  N   -1.25790675721517      1.17134859344090     -0.00224090769654
  C   -1.41065326697303      0.46062702208642      1.30345679695915
  N   -1.28717681231003     -0.93161409777897      0.75264033320103
  C   -1.39761949086214     -0.22744577288884     -0.58143429521119
  O   -0.14010928608128      1.33925198982518     -2.04890107050270
  O   -3.50115275402232     -0.11671904363684      0.65818504622959
  O   -2.73413954533196      0.59653463486870      1.70673846825001
  H   0.65708205570867      1.06002215978967     -2.51988413000482
  C   -2.56184083553539     -0.92317414550773      0.02804025596518
  H   -2.97899343047057     -1.86546798683261     -0.31291632429310
