12
Coordinates from ORCA-job orca
  H   -0.04043820696169      1.05695706822557     -0.99510367146205
  H   2.31422190118848      0.27914700220899     -0.63642763156987
  C   -0.96609449095220     -0.22818848622490      0.46218042847300
  H   -0.93580759333308      0.50691795314852      1.28348663489266
  C   1.53437146959409      0.04817870111404      0.09457895661546
  H   -2.44508481213517      0.57713234383326     -0.51385593083633
  H   -0.80570419888612     -1.21380730667288      0.91267611340771
  H   1.61438737924660      0.78069260702019      0.90508682022961
  H   0.08218057575961     -0.65815704466033     -1.35880101145244
  C   0.14402145519094      0.07197142201366     -0.54395847868582
  O   -2.25538615768671     -0.28439870492952     -0.12799967605167
  H   1.75933367897524     -0.93644655507660      0.51813744643974
