16
Coordinates from ORCA-job orca
  O   1.28085218403734     -0.37143751226000      2.24586732504639
  C   0.69839006467223     -0.68389848467992      1.25588158990290
  C   0.56195842800684      0.17073360852269     -0.08959590667438
  C   1.75189456468905      1.01692245867029     -0.42305616278623
  C   -0.77444385219745     -1.58390683737784     -0.21825382555150
  C   -1.52765790532529     -0.28075153038629     -0.45856811873085
  C   -0.84490589768027      0.84439818685765      0.20581171113985
  C   -0.19356141579088     -0.67731437166235     -1.20929402942993
  N   0.08410171060256     -1.87773703772574      0.81521935638365
  O   2.10838527125413      1.21804650538818     -1.55723325832071
  H   2.27363948686267      1.44767550155316      0.45472204671042
  O   -1.16636554088155     -2.74664046044978      0.43534881944682
  H   -2.53436964583749     -0.30085583296177     -0.85767802129722
  N   -1.25209029893695      1.93835983999347      0.66745142930919
  H   0.03518001585821     -0.65803724117552     -2.26503335860417
  H   -0.50100716933315      2.54444120769377      0.99841240345576
