22
Coordinates from ORCA-job orca
  C   1.76274928091829     -1.24382153656088     -0.16224842794319
  C   2.88693125069474     -0.69185409111919      0.68015508064047
  C   2.88451878340562      0.66993824668299      1.22440309919157
  O   3.70440498716044      0.31983662584729      0.10303052593988
  H   -2.28073097463040      1.70680955239998     -0.96780593091507
  C   -1.80591777138532      0.75961435676520     -0.67629602787724
  O   -2.76952438538971     -0.25135669297810     -0.49048125227684
  C   -0.10560038641806     -0.65431301364008     -1.46266416986364
  O   0.90997285483659     -0.20817937934820     -0.58919922883691
  H   2.19742360504993     -1.77377624898153     -1.02674444579471
  H   1.21120740790964     -1.99344764348686      0.43155494691443
  H   3.43776505874452     -1.46548547341138      1.21911824812613
  H   3.42069360879491      0.87929192041308      2.14874674101271
  H   -1.23289901850177      0.90880156175792      0.25417133867976
  C   -3.57558607833791     -0.02736371213852      0.64518031495944
  H   -0.64476293564324     -1.50311611659388     -1.01193618024490
  H   -4.16438933427417      0.89782941132093      0.55303234845733
  H   -4.26240745638405     -0.87105986284510      0.72916533983412
  O   -0.96900630745656      0.40476215531775     -1.73438915265619
  H   2.05033171371678      1.32631187383150      0.99414364018173
  H   0.32126622674665     -0.95965544344908     -2.42742850137595
  H   -2.97643812955691      0.03638651021616      1.56649369384707
