17
Coordinates from ORCA-job orca
  H   3.18069779970809     -0.92310093134430      0.42850691790205
  O   0.71012631723843     -1.14284609391699      0.37951955885945
  C   -0.46603152557430     -0.61717562518877     -0.22650743022633
  H   2.46809512691767      0.19941997379873     -0.77874304490029
  H   4.17487760562650      1.18471253868710      0.51721958878009
  O   1.40753348226045     -0.02611732476592      0.98428580741915
  H   -0.19567388288987      0.17066567940063     -0.94358841502300
  H   -1.05168918368843      0.70224024717794      1.35540256133162
  C   2.64413200429929      0.03167132637073      0.29869021436055
  H   -1.71986350911975     -0.92033881992766      1.48483181367046
  H   -3.24817020396855     -0.44531537122208     -0.48490878356610
  C   -1.49632403808513     -0.11355333655710      0.77791250970910
  H   -3.50667745283939      0.72301666012547      0.81357314943154
  C   -2.77549532218349      0.36221355696850      0.08512910215867
  O   3.29952786817721      1.10520902035988      0.90805106033826
  H   -0.85362059629272     -1.47331560231083     -0.79319293548597
  H   -2.57144548958602      1.18261510234467     -0.61139367475924
