11
Coordinates from ORCA-job orca
  H   0.04800490864776     -1.16148455602649     -0.98714371979691
  O   1.10023716293162      0.68215600371201     -0.99364386684793
  H   -0.64326958754517      1.17017327479256      0.90431559451311
  H   -1.18546081846800     -0.49558338805612      1.19783402250310
  C   1.62961267119213     -0.07879934894034      0.09368530805607
  H   1.81409915211832      0.47999062780367      1.01097866085107
  C   0.25297804501336     -0.28275212429176     -0.36973955727799
  C   -0.92799746724890      0.23440449735009      0.41346897105998
  H   -2.44145910625585     -0.28519401076643     -0.70408761509023
  O   -2.04816933346042      0.53922630664957     -0.40033914347679
  H   2.40142337307514     -0.80213628222676     -0.16532865449347
