12
Coordinates from ORCA-job orca
  H   1.97216909525432     -1.25606733634758     -0.12734205499853
  H   0.81512446347997     -1.02842859150725      1.19607697608022
  C   -0.86796270990590      0.79458155515981     -0.05263533061751
  O   -1.55825217978553      0.19213020425772      1.03537408777099
  H   -0.30615061996456     -1.00185212935401     -1.09442334321786
  H   0.64372201803783      0.40930215710008     -1.52293810490701
  C   0.19199316960588     -0.11743988321005     -0.67232565964416
  H   1.84352209297772      0.31154706644064      0.68078636539292
  H   -1.57389118998911      1.12968748347071     -0.82821383311108
  C   1.26904964769995     -0.55006859521907      0.32403331127258
  H   -0.39612010962777      1.69122736060640      0.36393277992253
  H   -2.03320367778280     -0.57461829139741      0.69767480605690
