14
Coordinates from ORCA-job orca
  H   2.40348113308864      0.01592103633340      0.62693263112948
  O   -2.04138090245704      0.67118946290043     -0.47012027189980
  H   1.75589750960397      1.57860385260856     -1.15092276791059
  H   1.65350912858384     -1.25542829414118     -0.35170114856122
  C   1.45458683068681     -0.47797307995232      0.39188356144129
  H   -2.58045045199454     -1.21774932080770      0.37827876264289
  H   0.22520467563872      1.29299842950804      0.61980055950875
  H   -0.79834322729104     -0.79882045349295     -1.36971027408291
  H   1.08830245966053     -0.95167558934901      1.30750730977146
  H   -1.74997949752065     -0.04156940443467      1.52158447687975
  C   -1.90398977960770     -0.37275612684842      0.49494625734863
  O   0.91303632623711      1.15433724889797     -1.34116348461037
  C   0.44228936328121      0.53475240855034     -0.14889728561605
  C   -0.86216256790986     -0.13183016977249     -0.50842032604132
