12
Coordinates from ORCA-job orca
  H   2.00524406428988      0.12066196779990     -0.85564783362046
  H   -1.46324312031503     -1.29495662739764     -0.13522774713607
  H   1.07556157129834     -1.39309668885508     -0.85975206437650
  H   -2.13986782150087      0.28090328442414      0.32756519224691
  H   1.52324997847282     -0.63410582161576      0.67524533748319
  C   1.20540498206345     -0.43059291548877     -0.35483145467731
  O   0.11199836446781      1.68811899472926      0.16361591781585
  H   -0.38086068346761      0.56114372273525     -1.41122752870696
  H   0.36953852673307      1.59475767336479      1.08801474751075
  C   -1.23793337526589     -0.33615894185869      0.34252458916564
  C   -0.09052623043685      0.38099533707817     -0.36950511187919
  H   -0.97856625633912     -0.53766998491558      1.38922495617415
