12
Coordinates from ORCA-job orca
  H   1.33384774683218     -0.61045453188612      1.01233905335120
  C   1.29157036366958     -0.30709225544255     -0.04101262338631
  C   -0.02188242437620      0.41545683047154     -0.34178045153881
  C   -1.24671087154370     -0.45321444448564     -0.05372390297279
  O   -0.09687259749175      1.66023932012119      0.35000659590351
  H   2.14156933021651      0.35020898213812     -0.24084709597079
  H   1.39646562931839     -1.20904448874047     -0.65223449717418
  H   -0.03308178526314      0.69910673553247     -1.40070630067823
  H   -1.24242483140604     -1.36051264934145     -0.66615363954699
  H   -0.09388622701602      1.47439733624565      1.29605833473779
  H   -2.16470437255065      0.10257269231786     -0.26087693670578
  H   -1.26388996038916     -0.76166452693059      0.99893246398137
