16
Coordinates from ORCA-job orca
  C   -1.93995250499656     -0.53524439378856     -0.16764992558539
  C   0.28216211367439      0.55359988365559     -0.71175468294538
  H   -0.02965332399347     -1.19283763500563      0.53554912246715
  H   -0.11902677228770      0.97716321639930     -1.63836093404984
  H   -0.29221394486552     -1.46542929470696     -1.18774846081141
  H   2.46897418614941      1.42011147120717      0.62084733543030
  C   2.44955902023512      0.39947869082411      0.20016174022814
  F   3.71234244903155      0.04998325288993     -0.15458879951347
  O   -2.10900467526219      0.29768021494045      0.97344420701372
  H   -2.38203177889831     -0.07008342143021     -1.06382806568453
  H   0.12585278849369      1.29518563773794      0.08265608853565
  H   2.09491573644951     -0.30447764401821      0.97107868242981
  O   1.67030468148950      0.34856416253754     -0.95070675432555
  H   -3.04624292911160      0.48040499252762      1.08757072878073
  H   -2.43840044445371     -1.50562569072351     -0.02547643158955
  C   -0.44758560165409     -0.74847544304658     -0.37441285038037
