13
Coordinates from ORCA-job orca
  H   -2.40068284544445     -0.65377136135670     -0.48759409559284
  O   0.14891884835970     -0.86747266856321      0.36719422378179
  H   0.50187568558486     -0.06674339759079     -1.51911500109199
  H   -2.65911338114885      1.08776435399819      0.07424022337237
  O   -1.78124743840523     -0.24174460957558      1.51697996818608
  H   1.41745692755720     -1.51722633437943     -1.04012062786167
  C   1.05538762306641     -0.54473636017393     -0.70100019473227
  H   2.68739085621953     -0.10482753013018      0.43011053684642
  H   1.91049872562464      1.22873477225003     -0.12612979418755
  C   -2.09545646634272      0.16073322669113      0.16596647150795
  H   -0.24129485683451      1.08959262081662      0.98141934438686
  N   2.18060255919765      0.28035428408462     -0.36009129179121
  C   -0.72433623743423      0.14934300392922      0.69814023717605
