12
Coordinates from ORCA-job orca
  H   -0.05416804389363     -0.05454019779755     -1.47713830599459
  H   0.99036190012247      1.47563365938956      0.24980834166595
  H   2.21555558447037      0.51399981573876     -0.58951576275275
  F   -2.07360268838756      1.20884292523013     -0.61128499906828
  C   -0.98134568744012     -0.51117870395765      0.39100743399458
  H   -0.72875958030689     -0.84229969475983      1.40801504860358
  H   -1.73593638055849     -1.19390131096535     -0.01781741572815
  C   0.25552705156645     -0.42711028116018     -0.49583785357903
  C   1.35770829595692      0.45924504168372      0.08610654994151
  H   0.62121851483074     -1.44955071138826     -0.65012995176593
  H   1.71442184383633      0.07264062471887      1.04702168805151
  O   -1.58097981019660      0.74821983326777      0.65976522663159
