16
Coordinates from ORCA-job orca
  H   0.75985415289947      1.33396378368809     -0.52429054616338
  H   -3.23520255807832      0.06061208650996     -0.35259126572562
  C   -0.84569995957707      0.24731114895025      0.43236632126459
  C   -1.42179471937094     -0.33765478749705     -0.85280684051565
  O   -2.75773953417984     -0.67971181025406     -0.74680390416289
  H   1.40339557170466     -1.07621699868905     -0.70558470283994
  H   0.88835761364763      1.24276005614347      1.22957757851623
  O   2.94892018058297     -0.09198176925811      0.11132786913909
  H   -1.45713237517537      1.12240861363401      0.69089588149142
  F   -1.24911323472830      0.59989405896937     -1.86449477799227
  H   -0.99098607625085     -0.49050400138573      1.23003391000079
  C   0.62599522142517      0.66686884759715      0.33249576559177
  H   -0.90461759450580     -1.24822694116021     -1.17195338712763
  C   1.59754740822169     -0.50922259338664      0.21016503697671
  H   3.18385960233376      0.36307493375590      0.92679165886022
  H   1.45435630105115     -1.20337262761735      1.05487240268655
