12
Coordinates from ORCA-job orca
  H   1.94416542489415     -0.19748505549714     -0.83635217345448
  H   -0.90393670682762     -1.42057993761910      0.16984087888572
  C   1.65744760290853     -0.05091685357364      0.21743139723595
  H   -0.24988292202411      0.40906226943733     -1.45001979347367
  H   -1.67022786085118     -0.20870520853828      1.21305893825140
  O   0.64585177882509      0.92067963135449      0.34884967069021
  H   2.52791485011313      0.31173082070081      0.76894804822719
  C   -0.52105045162253      0.65382008319307     -0.40961975126586
  H   -2.32319637026392     -0.54130530744193     -0.40352386712423
  C   -1.40159117235178     -0.44679479007648      0.17993614353501
  H   1.36899461486411     -1.02764309715810      0.63226526064735
  H   -1.07448878766386      1.59813844521898     -0.43081475215459
