12
Coordinates from ORCA-job orca
  O   0.60874545537067     -0.88533923637113      0.48171518254688
  C   1.66574166745208     -0.01290795065434      0.15562151930065
  H   1.44400754206293      1.03658527027083      0.39738524884374
  H   -0.81952765248748      1.48115792947352     -0.04791138487961
  C   -1.36756969139453      0.55416112289914      0.14273321154148
  C   -0.57114936182776     -0.68075282153263     -0.27578753878443
  H   1.92381263138627     -0.07090925213323     -0.91398471006338
  H   -2.30464983250036      0.60323221739359     -0.42137788146013
  H   -1.60850703006898      0.51028268098675      1.20865288534649
  H   -0.32907634568375     -0.63222249237065     -1.35040943737188
  H   -1.17553355104193     -1.57989388378965     -0.11840833808881
  H   2.53370816873283     -0.32339258417219      0.74177224306900
