12
Coordinates from ORCA-job orca
  H   -2.04641147575007      0.66454093512109      0.79945955684336
  H   2.09371538659198      0.99058332602321     -0.01130371721201
  O   0.48048738258309     -0.12191387457117      0.69865804373242
  H   2.15937751865103     -0.75627141375085     -0.36112062765161
  H   -2.48213625055219      0.06944129108811     -0.81527097062205
  H   -0.12542408446584     -0.66442098519079     -1.20555248111639
  C   1.84736877618498     -0.00746606927488      0.38371398584518
  H   2.41278153749663     -0.17059012834562      1.30334065346871
  H   -0.19236876638559      1.07043505016368     -0.85471551024641
  H   -1.97897991651006     -1.07044122105537      0.44933331041997
  C   -1.80590941966930     -0.07535557600668      0.03198977286515
  C   -0.36249968817466      0.07145866579926     -0.41853301632632
