9
Coordinates from ORCA-job orca
  H   -1.37952753244569      0.86572913403674     -0.00411714214387
  H   -1.96522038412874     -0.66801114976580     -0.70199951179654
  C   -1.15373173069785     -0.20435184048669     -0.13717861551330
  H   1.05453504435556      1.24727461812479     -0.09651312094333
  C   1.15776496154344      0.15805879411542     -0.22606653705662
  O   0.03501504926055     -0.40114153065632     -0.86409147870621
  H   1.32884527785173     -0.28796076837082      0.76674963574765
  H   2.02731333226097     -0.04090894771838     -0.85599890725478
  H   -1.10499501799999     -0.66868930927893      0.86076967766699
