11
Coordinates from ORCA-job orca
  C   1.66382922968953     -0.11844794843810     -0.57804619238734
  H   1.29782586352666      1.88900174704453     -0.01629530343855
  H   -1.01071836325113     -0.78573710826272     -0.70661960169033
  H   1.32544955279604     -1.14298294485935     -0.65643814515206
  C   0.92082151557486      0.87310203914658     -0.08404564628785
  H   -2.77814699187542      0.28765975089615      0.30893471411838
  H   2.66717187381170      0.09732661419763     -0.92010579528358
  H   -0.46732450080396     -1.17131959407313      0.95916039407323
  O   -0.34458648726937      0.81918484768698      0.39516395883280
  O   -2.27173419390882     -0.30669570025932      0.87401810474516
  C   -1.00258849829008     -0.44109170307926      0.34076551247012
