14
Coordinates from ORCA-job orca
  O   -0.45990293017217      0.23611127520807      0.26394743290975
  H   -2.09188087144838     -0.61353549150719     -0.65984825280869
  H   -2.73331306467940      0.74292842094833      1.10150778965874
  C   -1.66764039704352      0.38750086448192     -0.45272274266614
  H   0.67175267404871     -0.22896789442203     -1.41332701365127
  H   1.57951471580694     -0.91274547626801      1.42973151494913
  H   1.52849590181335      1.36604626004187      0.74189085535921
  O   -2.53622126033163      1.18965036807907      0.27034111527613
  C   1.77051259153217     -0.51313258529901      0.42089584393173
  H   2.54266037713384     -1.13297614454613     -0.04529963257099
  H   -1.48914276320180      0.89697325806778     -1.41074338124791
  C   0.48798170857420     -0.59284543925273     -0.39024978261142
  H   0.12829760150494     -1.63289620886701     -0.45276455031773
  O   2.26888771646275      0.80788879333504      0.47404880378945
