11
Coordinates from ORCA-job orca
  F   -1.40720395164433     -1.35487282900309      0.33754350320422
  H   -1.80007389271945      0.60589866784675      0.37747907953414
  H   1.09895393093336      1.10863237321755     -1.48725655482796
  H   0.23500178045679      1.48877552412108      0.06023997843961
  C   -1.64568339154486     -0.19970760731351     -0.35759156629350
  C   0.52144462155987      0.70106765945899     -0.65294535953703
  O   -0.61162096315847      0.10626571733391     -1.22780603872101
  O   1.95859042985964     -1.08062329784508     -0.78275309662973
  O   1.30672894403510     -0.15635966480700      0.12365711397421
  H   -2.54048676156250     -0.34299026720954     -0.97117757192854
  H   2.88435125378485     -0.87608627580006     -0.58710448721441
