15
Coordinates from ORCA-job orca
  C   2.78484087594963     -0.37652231277321     -0.24683554527100
  O   1.49056738293617     -0.52770388829997     -0.79989454132511
  O   0.70558020595538      0.58902928210769     -0.30061485755154
  H   -1.47692742044242     -0.24450582792544     -1.46425081459937
  C   -1.60951270108228     -0.37045739261633     -0.38999172387267
  H   -2.03005270095053     -1.35344332880136     -0.17663818290249
  C   -2.26159680660623      0.81208278725574      0.35032964390794
  O   -1.03429838590607      1.06151341765626      1.08831390192066
  C   -0.35948353195011      0.00768823110008      0.42911523777434
  H   3.23539926942329      0.57661892377580     -0.54484792364049
  H   2.77298696012070     -0.45080776100464      0.84727323423012
  H   3.36347996203724     -1.20491347663936     -0.66635123108078
  H   -2.54574926720957      1.67523605907884     -0.25985609903725
  H   -3.08359243074078      0.55985720786069      1.02743976597136
  H   0.04836058846558     -0.75367192077480      1.10681013547627
