14
Coordinates from ORCA-job orca
  O   -1.85332159329462      1.22030903125629      1.14264156055070
  C   -1.80074029943569     -0.03861841937859      0.49837139574793
  H   -1.92613302618247      1.90283365719956      0.46760823279057
  O   0.57377262482858     -0.30655917083131      0.51602773273753
  C   -0.54552350881448     -0.24415341218122     -0.33681539738718
  H   -0.44045990716285      0.58400869950304     -1.06183406571655
  O   2.84116401682094     -0.31074969013685      0.75330842098637
  H   -1.82156227090288     -0.78777911723822      1.29514082437634
  H   1.84831931508001      0.50301474929480     -0.88172491026535
  C   1.80566526356206     -0.34378512786730     -0.16793194454552
  H   2.73015268645497      0.48345813318421      1.28872604812742
  H   -0.64941731503986     -1.17345599277001     -0.92402555185520
  H   -2.67956619289414     -0.20751407327643     -0.14388347451403
  H   1.91765020698043     -1.28100826675796     -0.73406687103304
