17
Coordinates from ORCA-job orca
  C   -2.82019118863606      0.02975002608794     -0.97814870301074
  H   2.46938079325941     -1.73471569980418     -0.72243736455050
  H   2.37111146020812      1.33311972217040     -0.09043000636990
  C   -1.67432306446740      0.59106260000636     -0.15086157695298
  H   -3.64450046292214     -0.25131483199870     -0.31681272213491
  H   -3.18678280468031      0.77157261084713     -1.69234233562993
  H   -2.50330090823417     -0.85805992271093     -1.53160113197975
  H   -1.98652197444878      1.48348832203588      0.40623287509980
  H   -1.28688220159674     -0.14714574438946      0.56002408244861
  O   -0.65605702936304      0.94474145531551     -1.08388675868112
  C   1.52052242434959      0.71109029401235     -0.41641480239965
  C   2.39527523379079     -1.33986947577961      0.30253778904841
  H   3.37095021023024     -0.90850598223766      0.57535965483434
  O   0.42673218114925      1.55736146197295     -0.32944021529458
  O   1.35133540608688     -0.39993074096004      0.42876545701067
  H   2.17379956115718     -2.16305928975461      0.98337856465240
  H   1.67945236411719      0.38041419518667     -1.45589580609019
