13
Coordinates from ORCA-job orca
  N   2.25598904544151      0.28581215574635     -1.38060042171168
  N   1.46976329735450      0.10240361380619     -0.24674553162193
  C   0.10530903630703      0.01226106640888     -0.33502751104830
  N   -0.50895927724372      0.09487916913130     -1.47331565878740
  O   -1.90380953217043     -0.01633262025778     -1.40062578902298
  C   -2.61148578330703     -0.19859657151411     -0.23249466776526
  O   -3.80505249782913     -0.27686817586471     -0.29441783635607
  N   -1.89288629482111     -0.28114354084062      0.97658196707703
  C   -0.62036622480989     -0.18107139992658      0.91153408028054
  H   2.77250692256598      1.15691690434478     -1.32385535780811
  H   2.89972152177127     -0.48865556285129     -1.50117837264198
  H   1.89065664503601      0.03505749380570      0.66836541530357
  H   -0.05138685829501     -0.24466153198813      1.84341468410258
