15
Coordinates from ORCA-job orca
  H   -0.44556697717796     -0.83581021496144     -1.18267735923950
  H   -2.00350157676284      1.15337242232618     -1.17101775503108
  C   -2.13963152915057      0.30933763763257     -0.48613063517594
  H   -0.15536074162500      0.90075281426602      1.32906151829580
  H   2.52905473539044      0.51150748123106     -0.92676773059798
  H   3.21328906410444     -0.83618375358539      0.01860396035929
  H   -0.97829719792134     -1.27788724131261      0.43307406388132
  H   -2.55556605859307      0.70603289344639      0.44633592697506
  C   0.23110966133341      0.49478409550501      0.38725580647060
  H   1.85497856388060     -1.13004795806864     -1.08838435086846
  C   2.28752692982272     -0.41205350481239     -0.37682534103857
  H   0.42745442200330      1.35111389482609     -0.28055210483146
  O   1.44398452391805     -0.15431068054403      0.72196291328298
  H   -2.88908841470368     -0.35470637085022     -0.92573133848707
  C   -0.82038540451850     -0.42590151509861     -0.23793557399499
