16
Coordinates from ORCA-job orca
  H   0.84473729371606     -1.38625247896657      0.46909081776377
  C   0.61508784054242     -0.87302412387218     -0.47631972552298
  F   -0.10026856533706      1.03650969482353      0.76147282187467
  C   -0.50501987550244      0.12662786127007     -0.21840785623570
  O   -1.60808871225268     -0.57079810351720      0.21312688524336
  C   -2.78033821830935      0.21941704861454      0.36567850103831
  H   -2.63949682017522      0.99145196824475      1.12961078698526
  H   3.52854515424339      0.62555862107708     -0.69672668659626
  C   2.68682886206157      0.24203496332761     -0.11620098645515
  H   0.23919726462300     -1.61489736207367     -1.18820050373538
  O   1.75293759326993     -0.27655006821321     -1.04847929806271
  H   3.05182621735913     -0.54779280680231      0.55759263624921
  H   2.26449121885525      1.05111052669636      0.48951533134791
  H   -0.71489369513552      0.73462144215707     -1.11281797457765
  H   -3.05742838790265      0.69943302326628     -0.58317026536616
  H   -3.57811717005584     -0.45745020603215      0.67352751604948
