20
Coordinates from ORCA-job orca
  H   2.04047680866735     -2.86778958141716      1.98036825890693
  C   2.29642052806101     -0.19907187837262      0.46907401657989
  N   1.50354243129153     -1.37124218234880      0.98328345582887
  O   2.44049198805411     -2.43989557731130      1.21471335612813
  N   2.58187526632732     -0.61210494425789     -0.76795173613177
  C   1.22974555084481      0.87289741684261      0.28997119650777
  O   1.32139537295297      2.18490035045415     -0.23258468702167
  C   1.26578554227889     -1.33884477962811     -0.53441833424868
  C   0.31610326440241      1.92426505555296      0.75075996529391
  C   0.34184475459940     -0.10913156423740     -0.46139731110198
  H   0.30568836288301      2.50124087527468      1.66682769226605
  N   -0.96911930508800      1.65214008588457      0.13583474823755
  H   1.00647007546695     -2.25055101548570     -1.07232299186425
  C   -2.11902315796623     -0.17465761968177     -1.13036288046686
  C   -0.91702376999546      0.37261502046885     -0.50654399745886
  H   -3.01192232137046     -1.57588629869467     -2.04378605112377
  O   -2.03964686725823      1.74063626894451      1.06720593199319
  H   -3.00070286747201      0.47505724162905     -1.09768609585657
  N   -2.09904769486173     -1.33793258028330     -1.65176547649188
  H   -2.49335496181765      2.55335470666735      0.81033394002399
