20
Coordinates from ORCA-job orca
  H   1.62975242105629      1.07451308209721     -2.49706389617449
  N   2.54852238361834      1.12751109937396     -2.07895613159761
  O   3.52517640004097      1.53441179384036     -2.97492101284649
  C   2.95098069630718      0.23771208516673     -1.12452589234220
  H   4.31953407370942      1.09412757894271     -2.60460954456055
  O   4.13887603338862     -0.01417124385239     -0.96065961115519
  C   1.85564310660536     -0.30129405836059     -0.35788791634083
  N   -1.36983681698884      1.78002706710880     -1.03632171722052
  C   0.90112960789946     -0.72640240325313      0.25311961572568
  H   -1.21228603516728      2.77076563078746     -1.28068826133733
  H   -1.82516162614666     -3.21496021557398      2.81293220114714
  N   -0.28985013049915     -2.27905142109212      1.67362098934941
  N   -2.03765145495357      1.78898298481209      0.01964701406116
  C   -3.63758293431178     -0.66338638468335      2.01835422417642
  C   -0.24033432384309     -1.15348684353226      0.94888798319585
  O   -3.53892607028392      0.47665797417440      1.22277054173369
  C   -1.56009409598564     -2.35972107039982      2.20421718500418
  C   -2.28766289942355      0.58794540768949      0.63632029180377
  C   -1.51695312354367     -0.47914944321648      0.99268652154800
  C   -2.35327421147854     -1.28103162002912      1.83413041582991
