19
Coordinates from ORCA-job orca
  N   3.80986265760303     -2.51341930927541     -1.29102013186293
  N   2.85405562402177     -2.91990705556037     -1.65273549469602
  O   3.97832799925891      0.52543576229391      0.62355037364809
  C   3.01966015333691      0.57656057312084     -0.01612668456979
  C   0.08748176559591      0.79051672279945      1.11312537764524
  H   2.13236889530486      0.51554366264045     -1.86699080281270
  C   0.63519030749760      0.81581183745752     -0.28110574742509
  C   1.94917222406816      0.63459014452056     -0.80443226468453
  H   -2.25190780978848      2.04828940241837      1.81148731340752
  C   -1.38417980691287      0.86760425888875      0.54458142010515
  O   0.57766735745011      0.66816518829544      2.20125747404617
  O   -2.11439958755173      2.02415607801163      0.85676271134705
  C   -0.64510122741703      0.88652757795943     -0.74507895475556
  C   -2.30985002348170     -0.34956814343896      0.23971263889206
  H   -3.33162955731929     -0.17368644003745      0.59112918069345
  O   -1.38018440875440      0.33358654062463     -1.80203093077738
  C   -1.83875382588287     -1.63701270799502      0.72494233807333
  N   -1.43541924364693     -2.65254795544204      1.10374768642069
  C   -2.35236149338194     -0.44064713728173     -1.35077550269476
