18
Coordinates from ORCA-job orca
  O   4.24133484489017     -0.67448738971560     -1.48580007735037
  C   2.58414794937197     -0.15696896939293     -0.05550960057831
  C   1.42144843284041      0.73746010112783      0.11021744590492
  O   2.26453496000555     -1.52993732808204     -0.05173699087069
  N   3.66980359307836      0.23632860551960     -0.93558191099424
  H   2.48775531829058      0.98372905145855      2.12608054334610
  C   0.08769194955885      0.49804816101199     -0.47137064191788
  C   2.25414244441244      0.75464452595654      1.10025139758744
  O   0.81772653833388     -1.62653803528292      0.14721442796645
  O   0.16169299467439     -0.89548907951567     -0.88442221151493
  H   -0.07828466039278      1.00953129283121     -1.43082189535723
  O   -0.90595657801375      0.76287628516336      0.44852379970990
  C   -2.21593274473321      0.73567973161283     -0.07658383458982
  N   -3.30616626755412      0.97065169377737      0.93638127153689
  C   -3.17320514252238     -0.18244173210845      0.43277817741725
  H   -2.28910871165564      1.21935569465766     -1.05233580507002
  H   -4.36128742376561     -1.43958651991143      1.14993435492561
  O   -3.66033749681910     -1.40285708910790      0.47987954984894
