20
Coordinates from ORCA-job orca
  N   -4.17622816387753     -0.54365118949083      0.10286314835047
  C   -3.05009173662175     -1.45327714200239      0.44089393881525
  O   -2.88033955188164     -0.90552754549361      1.72589595648070
  H   -1.92580515499503      0.70443839115893     -1.04730113158682
  C   -3.08834362936446      0.12678440740639      0.78385433813299
  H   -4.19820076072384     -0.32926474962099     -0.89887172384738
  O   -1.85931165957547     -1.26565366019946     -0.38274091214408
  C   -1.78889114088195      0.11957717779491     -0.13509693741205
  H   -0.13364326296765      2.34348026558186      1.71960008163981
  N   -0.61161579216291      0.48305603193840      0.60744507607567
  C   0.60648234599009      0.89648717409053     -0.05983279779277
  C   -0.19403954451531      1.84521010394136      0.76032157628702
  O   4.52216623715732     -1.59014981254585      1.15236087219913
  C   1.81420124520972      0.16200299207331     -0.02443680030159
  C   2.85007372457226     -0.45437307553099     -0.02852734669458
  O   0.33098150110103      1.70631116831699     -1.22975546017261
  O   -0.44646301366294      2.64677351180617     -0.39510424841966
  H   5.48011391237025     -1.89771993164391     -0.92808417863803
  C   4.08191225973547     -1.19834857765359      0.10109460565955
  O   4.66704418509433     -1.39615453992723     -1.09548105663102
