13
Coordinates from ORCA-job orca
  H   -2.64138224687441     -0.08114287633268      0.50551898288759
  C   -0.87371710950628     -1.27712199027250      0.25213229778709
  C   -0.04399752651185     -2.05120694627040      0.89206053762424
  C   2.74439990262202     -1.35600537965478     -3.13895995902693
  O   -0.78510596225044      0.65068123341344      2.91941966289194
  C   -1.54854975508715      0.00978126972866      0.56730278273693
  N   3.14733770364204      1.16213577012147     -0.36252425185172
  H   -1.05817465847521     -1.73751222733999     -0.73051430448083
  N   2.11378266530273      0.87622567410046     -0.12088407578089
  O   -1.06944295045863      1.99971196142713      0.99060337967538
  C   -1.14287341765395      0.78684433559097      1.81052645022553
  C   -1.19110373251755      1.34973805890952     -0.16761940196065
  O   2.34882708776871     -0.33212888342132     -3.41706310072768
