21
Coordinates from ORCA-job orca
  O   -2.88250997495176     -0.90807420860500     -1.39772692646415
  H   -3.04889218034191     -1.63849262283314     -2.00347880494367
  H   -2.16516264445116      1.65200388871207      0.56321412668244
  C   -1.64804131846385     -1.08213729997459     -0.87329131277933
  H   -1.07704427365008      1.87000578405668     -0.63635034527345
  N   -1.83418051805774      1.26713844259088     -0.31653900145509
  N   -0.84094787487661     -2.05438380406015     -1.01326937793533
  O   0.27016004401261     -2.19097987905454      2.19324545393629
  H   -1.24950187046466     -2.84176183220660     -1.51054519369485
  N   -1.30358367835098     -0.01499834175618     -0.04849943017432
  C   0.48534609694211     -1.14386621685300      1.69451518199364
  C   -0.11890326000267     -0.09546071101345      0.69283375326591
  C   1.41708328838867      0.29366363908024      0.34792734527344
  O   -0.02541177578952      0.82814101033697      1.83798616894692
  C   1.30031190118438      0.18057975022154      1.88938377529901
  H   2.21005958899583      2.72075680320766     -1.45821665529292
  N   2.22173997662718      1.74219565365524     -1.14131378397221
  N   1.48256023432596      1.65981687305356     -0.13994238112912
  O   2.22992936714868     -0.60454387664526     -0.27464621670485
  H   1.99669254735981      0.50670095264967      2.65577088623493
  H   2.58029832441571     -0.14630400456259     -1.06105626181330
