13
Coordinates from ORCA-job orca
  H   0.87694990684904      2.12297512855335     -0.11282544749566
  H   1.13645669403214      1.13205001781921      1.33990569413255
  O   2.36859948503192     -1.77330319624869      0.50237043424446
  C   0.64022209256407      1.16560966646818      0.36979372430180
  C   1.48585344979846     -1.29608957891158     -0.14889784625839
  N   -0.09221406856863     -0.26874441350064     -1.44440785620187
  O   -1.59508624267722      1.55830972903821      1.32907593561667
  C   0.98634081689199      0.04931651437372     -0.56195927152538
  C   -0.90445101102315      1.03994582723101      0.49313512867249
  C   0.09887921707142     -1.47397876409165     -0.52226020861111
  C   -1.29140055925203     -1.39435798856282     -0.10937452085311
  C   -1.30921800490879      0.08448417854803     -0.57034375437286
  N   -2.40093277580924     -0.94621712071632     -0.56421101164958
