7
Coordinates from ORCA-job orca
  C   -0.59673964514793      0.15864337206575     -0.26125807428946
  F   -1.64395623577067     -0.52906417268149     -0.77038436044673
  O   1.14841893976539      0.02242922829188      1.16006178192602
  H   0.07451665588376      0.47857864865136     -1.07198413509213
  H   -0.95514888553468      1.02703581370458      0.30701962854804
  H   1.90740351007469     -0.40823923574321      0.73995688256867
  O   0.06550566072944     -0.74938365428887      0.59961927678560
