16
Coordinates from ORCA-job orca
  O   2.36256393201277     -1.85121889324522     -1.14603694428729
  C   1.50030660176871     -1.25764839485330     -0.59352578686874
  O   2.06996050795215      1.01329981231685      0.40903110204360
  C   1.13317823771481      0.22123502546345     -0.23227117062419
  C   0.74754777777556      0.92831135103303     -1.53507130294691
  H   2.24463287042782      0.63393609102167      1.27942538678392
  O   0.38469932621735     -1.76758109348344      0.04553571888802
  O   -0.52561887969109      0.87298880125583     -1.81930519568011
  C   0.02798769389908     -0.46863548688846      0.60537532878154
  H   -0.46594009459814     -0.83895120738748      2.41616187061797
  H   -2.44176750709874      0.18974624920389     -1.54980105182689
  C   -1.58566314698525      0.45534167155978     -0.93929782710649
  O   0.24407574416747     -0.37801540709945      1.94853775592292
  N   -1.36872406250474     -0.25727775338758      0.27102764310129
  N   -1.67888294636064      1.21462610865044      0.26569619389954
  H   -2.64835605469708      1.28984112584001      0.57451927930183
