21
Coordinates from ORCA-job orca
  F   1.34281331363992      0.56801916987944      2.03018170622272
  N   2.79187647200663     -1.76577338994740     -0.36904784616004
  O   3.80803756516383     -0.69893142906895     -0.49252842515370
  C   1.35742982966890     -0.29120884051771     -0.24132099386897
  F   1.37047727055643     -1.60944447316584      2.04935042378337
  C   2.71023393867807     -0.47782732838847      0.32291302718370
  C   1.62787545178641     -0.53056202878449      1.33471518164335
  O   1.53349119916038     -1.40366452585551     -1.12480007120254
  O   0.67691542676572      0.76578941246624     -0.70194559744325
  H   -2.10220506039664      1.19133730403193     -1.71021123975593
  O   -0.99104386556131     -2.31449184433348     -0.33310206984994
  H   -2.56061851068993     -1.28787359025573     -0.45047686043153
  N   -1.58933003843300     -1.10990946962322     -0.70243309316865
  N   -0.77605776748673      2.13986113962136      0.66543451756582
  C   -0.64264978387340      1.02174823919079     -0.24720976709215
  N   -1.39849129393959      1.75216641313153     -1.23705476943460
  H   -0.15783319305259     -2.33071530520861     -0.83333954357964
  H   -1.03736526873718      1.85180778259393      1.60630834497336
  O   -1.24950831117113     -0.11601325073971      0.32741748291554
  N   -1.95863252991480      2.59179192432000     -0.13344760054391
  H   -2.75541684416998      2.05389309065389      0.24059719339698
