14
Coordinates from ORCA-job orca
  H   0.29871010360822     -1.31806683832733     -2.18403771014227
  H   -2.61641689325622      0.65048256789785     -1.02092623161360
  C   1.89106533687500     -1.28909669073800      1.81830531140489
  O   -2.09225812142614     -0.07427403208393     -1.42959755060498
  C   0.26624564892515     -0.77260147642708     -1.24330348669445
  N   0.27425445815075     -1.65124748483533     -0.02948187129762
  C   1.19478321589796     -0.88296998977326      0.64599613470622
  N   2.47716094323451     -1.63562950846999      2.75447140305803
  C   0.84958474117001      0.76346469006987      0.52025434764354
  C   -0.90315607915948      0.00816209864940     -0.91265137724098
  C   1.44009277912062      0.05053384057719     -0.49608882688195
  H   -1.09451590584307      2.56730686843646      1.08463568298474
  C   -0.56909747383439      0.99924260498199      0.12938386592527
  N   -1.41645375346290      1.91989135004218      0.36304030875315
