19
Coordinates from ORCA-job orca
  O   3.25917080961161      2.56810780229645     -0.71081039170002
  O   1.80550948093376     -0.21221190641189     -1.99482488706089
  C   2.64178038103933      1.57803491745527     -0.74247333698448
  N   1.31783802140270      0.04213361779267      0.40392741704521
  C   1.95146049628292      0.44713394481220     -0.78687244821412
  H   1.35904216142590     -1.62242775270561      1.79553905916714
  H   2.47149377806625     -0.90693282596049     -2.07107942926062
  O   -1.15538003161895     -1.43120543148633     -1.61438985958862
  C   -0.01488485434082     -0.50918111010422      0.43860656202250
  C   1.15256512637734     -1.37091624666903      0.76005678710324
  H   1.40187553658160     -2.12326947908016      0.01434647723210
  N   -1.03013560733049     -0.03926787109155      1.40464569485223
  H   -0.89837163855140      1.82346818064933      0.19969569305387
  C   -1.07627560324527     -0.75196674870728     -0.63323548472091
  H   -2.22056443725340      1.74269615257190      1.45939561043160
  C   -1.55692698805476      1.19415412697075      0.79390336442132
  C   -2.09264801355233     -0.08354255160142      0.26363184230714
  H   -3.94951399347066      0.18619347721619      0.64377152406663
  O   -3.36603462430334     -0.53100129594679      0.37616680582668
