24
Coordinates from ORCA-job orca
  N   3.24112128345520      2.42017938795260     -0.18840664413862
  N   2.73461851016767      1.90930322012977      1.93908799458061
  N   3.48405666732620      2.59060496887825      1.12394829628698
  H   4.20311311763216      3.20302204759164      1.48561452545366
  C   2.24056094483817      1.51871729615717     -0.26779210693838
  O   1.62536471919050     -1.98925633463182      0.11445640558830
  H   1.17889655988912     -1.07977559050107     -1.64336843408040
  N   2.00080894940206      1.25347241066646      1.06283252090908
  O   1.09938874788388      0.36404253435962      1.58654312325059
  C   0.95799352187627     -1.27590217273733     -0.57914334706375
  H   -2.88740705858292     -2.99969786935285     -0.25761745740042
  H   -4.22551634133153     -0.55895372479602     -0.44123275319973
  O   -0.10666974245314      0.53465547207300      0.82739364313941
  C   -2.50045988941075     -2.00171046272808     -0.11698924126694
  C   -1.64057956743393     -1.48982778155205      2.03834199464990
  C   -0.35179411440084     -0.60302491377419     -0.06928408824882
  H   -0.32903115152198      0.75808775445199     -2.84563459857134
  C   -3.15914537425109     -0.66255110961584     -0.25713505316665
  H   0.34334018760881      1.35526522174219     -1.38682696867693
  C   -2.71636581418753     -1.22672648857290      1.12813454065056
  C   -1.24971747141347     -1.62895388333212      0.61883993907344
  N   -1.04736306146282     -0.10673948675946     -1.23204991540231
  N   -0.46298301536221      0.94438519305563     -1.86242900424234
  O   -2.43223060745785      0.37413431129541     -0.77728337118590
