23
Coordinates from ORCA-job orca
  H   4.90184406016039     -1.35131323118867     -0.55414605316543
  N   2.93530219913641     -1.09395014797403     -0.64880928875162
  O   5.44885422800640     -0.83479442412826      0.07935511369774
  N   1.16836930362710     -0.41907918956220      1.65151923857779
  C   3.24960548918135     -0.30420748184550      0.31436273933884
  O   4.44775501600083     -0.07087461014978      0.77875931743668
  N   0.16127310321885      3.22105456048082      0.46429315585202
  C   1.50040572585315     -1.11043333839833     -0.87428993507927
  C   2.00666831238860      0.21767994916978      0.94375320826888
  C   0.86147680895733     -0.14701211623003      0.13624359509806
  C   -0.05246715679245      2.13652214871133      0.12807106013462
  O   0.98008636815896     -1.65078937098323     -1.80533459919980
  H   -0.30637274006768      0.73403661101375     -1.38011701161479
  C   -0.29719788712109      0.74230976320050     -0.28113076985057
  F   -3.07834677655225      1.88040192633470     -0.92032075135057
  C   -1.63889987008794      0.24705406591072      0.19302037051687
  C   -1.93319346882357     -0.64697247210988      1.15518068569775
  C   -2.94841692527595      0.69723908352449     -0.33350156492583
  O   -3.75946556024673     -0.37995451376572     -0.89354306160182
  O   -3.27190175499203     -0.85473156052493      1.36514137959806
  H   -1.28219816976793     -1.22553959067466      1.79092798076854
  F   -5.15248796810127      0.25815663999591      0.85186554285007
  C   -3.94069633686043     -0.04480270080678      0.44344564770377
