19
Coordinates from ORCA-job orca
  C   -1.44921270856829     -0.55888276602862      1.92402909249935
  O   -0.97838827906629     -1.14069941196649      2.82705315093009
  N   -1.75683429199542      0.95344137460631      1.66868401532596
  H   -2.85545401926896     -1.45033711136585      0.19644009143004
  C   -1.64943882450191      0.61145377772634      0.19639365694685
  C   -2.36565555788200     -0.62768668757044      0.71416018182331
  O   -2.51433326652660      1.53543483636579     -0.58930041839230
  O   -3.17009613661775      0.30279354197154      1.54163129098861
  C   -0.27001748087410      0.75891407220446     -0.58102303773661
  C   -1.48762837404854      2.01405792419403     -1.23573849529999
  C   0.36581411697668     -0.54519189423327     -1.08599969023508
  C   -0.25954048731112      2.02726165980491     -1.50424957568582
  C   0.98837500698542      0.33895604956900      0.17798753987785
  H   3.35824139623628     -2.28344014993858     -0.17514562783886
  N   0.79904177433764     -1.14092503917343      0.21115590689091
  H   4.72566311204688     -1.67175002964017     -1.30522908439392
  C   1.76633992046573     -0.39068232335165     -0.78860324224400
  C   3.72294253073330     -1.55009595708857     -0.90008779615062
  N   3.03018156887903     -0.55934786608528     -1.29215695873577
