18
Coordinates from ORCA-job orca
  O   4.02641226452033      1.07272359974383      1.52512736247860
  C   3.11991112654212      1.43090196764978      0.88072736469731
  N   5.40110864123771     -1.60542582016079     -0.09824797153774
  N   2.30867755768904      1.85427214122403      0.07199608309959
  N   4.77699738255811     -1.96399568451762      0.73287279510041
  H   0.63445248681757      2.87867146121682      0.18631566646568
  N   0.86993693942432      1.89164536509552      0.27462466807050
  H   1.23806662993701      1.52263532900895     -2.34156841003425
  O   0.31282967853674      1.59030221434865     -2.06743904239339
  C   -0.51250818629637      0.12619773014375     -0.42483472289384
  C   0.22445675979146      1.16695963627097     -0.75765734861358
  N   -1.14401505441659     -0.87991101090211     -0.14330312911071
  H   -3.65120269653044     -2.95213203114687     -0.04462490697896
  C   -2.45039174669961     -1.05517584046264      0.20006544676945
  C   -3.41428660143859     -0.99070459008898      1.06369474826650
  H   -4.31071222469537     -1.50834962094781     -0.95252822193950
  C   -3.66375323104012     -1.86355212042059     -0.14772617041193
  H   -3.76597772593728     -0.71506272605489      2.04198378896585
