23
Coordinates from ORCA-job orca
  H   1.72779210235133      2.17077125438260     -0.69887561564739
  C   1.72619874925343      1.77942563179648     -1.70870327310386
  H   2.16778285153669      2.39804159696351     -2.48144103424497
  H   -0.96019801049840      2.92731052171046      2.57480372823505
  O   -0.39757506311902      2.15110236229735      0.70202557578780
  O   0.00685039676862      1.05782516788454      2.40641565759155
  C   1.19342265013523      0.58745566610624     -2.00373761243329
  H   1.21655725818972      0.21949810563056     -3.02368183907320
  C   -0.52971027566318      0.79406652113814      1.10344169563546
  C   -0.11090449583630      2.44071184483492      2.07732693525517
  H   0.81975781429774      3.00155748030020      2.22464214657281
  C   0.17940221434947     -0.25526812179692      0.26639089003532
  C   0.59941343658090     -0.30522701771023     -1.03759351370096
  C   -2.00565113761211      0.28510976344307      1.27771226150414
  C   -2.01608790011191     -0.94871698846768      0.64544865423003
  C   -1.99284383462014     -2.05542846108719      1.48725927813258
  C   -0.67659831774296     -1.50027935297144      0.10068527312139
  C   0.05627381443089     -1.69897336577853     -1.19466129130480
  N   -0.02213932947612     -2.71777634218067     -2.25580605789862
  N   1.00368583526175     -2.86878693082246     -1.27638222798500
  H   -2.49192854192707     -2.38378340410723      2.39055802644509
  O   -0.85456368689456     -2.62718944582341      1.06572460293341
  O   1.36106347034601     -2.45144748574231     -2.64155126008770
