13
Coordinates from ORCA-job orca
  C   -0.98664031215549      0.85014899010654      1.04663318219104
  H   0.81801824995572     -1.25722182900076     -2.24981255270738
  C   1.17264184875030     -0.42000302035609     -1.61837794012258
  O   2.09493777960643      0.29706686816140     -1.87849868102422
  N   0.39850212796637     -0.34834737790450     -0.44021876429454
  C   0.46173196690160      0.66258395908325      0.57678389532693
  C   -0.74201184939631     -1.10338322303786     -0.20512877296419
  C   -1.70957750233460     -0.40028994537748      0.58324862619866
  O   -1.58770393312782     -0.21325494010651      1.96274287243827
  N   -1.97732005784228      0.93752722011030      0.11668832850052
  N   1.52209297170426      1.22973382171086      0.93721616991726
  H   -0.79245227127979     -2.13838008407302     -0.51121725412647
  H   1.32778198125161      1.90381756068385      1.67994089066671
