22
Coordinates from ORCA-job orca
  H   -1.65905842020589     -1.15140037940604      0.99086795415869
  C   -2.16048152653134     -0.18484850918455      0.87416132046159
  C   -1.13882272781179      0.93262305830666      1.13114783296661
  C   0.08793403262426      0.88814313166543      0.22692730425156
  H   0.75066762905695      1.73690465120772      0.45913407763635
  C   3.12391591751597     -0.04976623887729      0.04523775762526
  H   -2.11575399882691     -0.25453569903714     -1.31191768388427
  C   -2.83481498406394     -0.11809006299727     -0.49835705731112
  H   2.04074173420302     -2.41076339325787      0.25374190920853
  O   1.88368151240306     -2.02708341281757     -0.61765363937068
  H   -3.59151034426457     -0.90184580674559     -0.60225486251590
  H   -1.61321402450041      1.91518311644413      1.00774767848610
  H   -0.79637984595796      0.87890610228868      2.17121507597176
  H   -0.19689149244401      0.98506737871173     -0.83284235190678
  O   0.75425861643128     -0.34582969163171      0.43438980533887
  C   1.81042102007918     -0.63953220533893     -0.46183641848515
  H   -3.33389147783096      0.84548205095397     -0.65379843101425
  H   3.34472036122443     -0.45090632485172      1.04029870699209
  H   -2.92716847013786     -0.13634360628371      1.65664071010445
  H   3.94377947162940     -0.30418311303655     -0.63123308717763
  H   1.56718621723938     -0.24693578440564     -1.46027203550595
  H   3.06068180016873      1.03975573829325      0.12407643396984
