19
Coordinates from ORCA-job orca
  H   -3.01747144092390      1.06304658072965     -0.51484093508530
  H   -2.03083756756062     -0.61531163424953     -1.70447192256617
  H   -2.56270257958761      0.15692726062588      0.95821338260854
  C   -2.19447135900980      0.57641136435912      0.00949415165488
  H   -0.54954414230508     -2.20182130584054     -0.94009431496348
  N   -1.61390938781216     -0.42476364339741     -0.81297028531200
  H   0.44670041261210      2.07660412357940      1.23049238689930
  O   -1.29161711220312      1.65131612776722      0.34999455016117
  C   -0.81576455188534     -1.44186534733514     -0.20432103344506
  O   0.75667072688651      1.07525151393000     -0.56570389075159
  C   0.00417041647804      1.27290510881285      0.63921127005126
  H   -1.31295838202604     -1.92441757288506      0.64941621333303
  N   0.45838748210462     -0.95046654641506      0.37215573019178
  N   1.23247093878660     -0.26902334225404     -0.56846239389170
  H   2.78442719588994     -1.16841304363980      0.20027940093874
  H   3.56229611290909      1.09573158908629     -0.92881964356673
  O   0.12558493574900      0.06710459220199      1.36035893999830
  N   2.57452194676521     -0.18438429396895      0.02945707953196
  O   3.44404535513258      0.14516746889313     -1.03987268578693
