18
Coordinates from ORCA-job orca
  C   -3.28827310142200      0.50671370030435      0.14532634706534
  O   -2.09814519444076      1.16877760521353      0.70660135300033
  O   -2.89091207146766     -0.75598048697196      0.75647427651239
  O   -0.51963605275449     -1.89398088488744     -0.56001367507971
  H   -4.28653050195664      0.92205682616383      0.22136384509395
  O   -2.62410748771498      0.20866404199204     -1.07218746226137
  C   -1.78369399461209     -0.09214329395817      0.13495546917527
  H   -0.71354287496631     -1.67232550399577     -1.48823384687111
  N   -0.49826800980110     -0.64837402599127      0.10737932418923
  N   0.46495029272334      0.22547897593464     -0.26465614799051
  F   0.33833379711221      0.39197638714214     -1.72738772785415
  H   1.94037132898786     -1.22202211034212     -0.72636277736880
  C   2.86343271957384      0.71082066129878     -0.43941559930311
  C   1.81441998921378     -0.33015149637673     -0.10395927157372
  H   1.89453943016451     -0.61156651328911      0.94922820811353
  H   3.84859394139129      0.23008382289000     -0.47135284987940
  H   2.65830377556542      1.16218346282535     -1.41513313922511
  F   2.88016201440377      1.69978883204790      0.51812167425693
