21
Coordinates from ORCA-job orca
  H   2.93441987659297      0.04662270419363      1.36805639636363
  H   1.32095551841857      0.40529692379979      2.10101553864174
  H   1.56375818966457      0.23300855289617     -1.87439293356557
  O   1.41203241726179     -1.29265454912385      0.88561137709000
  C   1.85240173536678      0.03635006183876      1.22392512933128
  N   1.88166253243123     -0.12280845905298     -0.97486161359231
  H   0.39465625784226     -2.94081591617665     -0.81164945804427
  C   1.00188397112858     -1.17680394958640     -0.46653385976187
  N   0.04025451293654      0.88302102806515      0.06289277271781
  N   1.51222633617596      0.84856643383357      0.04516456985652
  O   -0.89456927574916      2.96607118130964      0.06355016925826
  H   -0.07838370327062      3.45896908616004      0.24250444612295
  O   1.06797678766593     -2.34304885369522     -1.16035588168384
  C   -0.38073946933331     -0.45134369427007     -0.46333041723552
  O   -0.38852232942699      1.90187793424030     -0.77215885528501
  O   -1.31136675807312     -1.09119800808630      0.28204734374713
  H   -3.03916103786437     -0.21415314566947     -0.49877930742982
  H   -2.36274773046145      0.57578182892571      0.95863899003563
  F   -0.81330018138929     -0.32381773936880     -1.76706647901224
  C   -2.54600476435440     -0.38198296132017      0.46267915907107
  H   -3.16743288556249     -1.01693945891285      1.09304391337444
