11
Coordinates from ORCA-job orca
  H   2.46894445216340     -0.09707771168353      0.34417134019444
  O   -1.45673482152639     -0.94756800239133      0.49091077028247
  N   -1.63906868157386     -0.19292186519480     -0.77204679830916
  N   -0.22809256059734      0.12349983696626     -1.29482341519844
  O   1.83811594951647      0.30007769074123     -0.26535617071769
  C   -0.36492063159249     -0.08032481672194      0.81365629523075
  H   -1.14561289398339      1.97230881181827     -0.29293248722738
  C   -0.86839629993811      0.92507172603990     -0.24865764906525
  C   0.67726382246975     -0.47398213389439     -0.25876320430068
  H   0.86059143877264     -1.54771174918366     -0.39052206557526
  H   -0.14208977371068      0.01862721350398      1.87436238468620
