15
Coordinates from ORCA-job orca
  H   1.94454144045841      1.35780071377363     -0.11964901886401
  H   1.08931755052108     -1.58507258352464     -0.21917007119366
  H   2.24658565134974      0.24207931147232     -1.48932981244745
  H   1.40007130650872     -1.42330675363200      1.93129632958914
  N   0.14328881406628      0.73627140179774     -1.19072888030550
  C   1.53793475691716      0.52895354766585     -0.70945194383479
  O   1.44885374494855     -0.54200977227069      1.54971355340265
  C   1.00243293940949     -0.58871017768931      0.22332990696081
  C   -0.37044118187876      0.04099982974174     -0.05308081278584
  H   -0.18770577148394      1.68491275260041     -1.32421376877304
  N   -1.66381505110332     -0.61861251743348      0.10163068042454
  H   -1.04819244453060      0.24220593594876      1.83877628863838
  N   -1.26187950662654      0.60390339578775      0.90660068187195
  O   -2.47243463383028     -0.18848342096849     -0.93996492824844
  F   -3.80855561472598     -0.49093066326958     -0.50575920443473
