24
Coordinates from ORCA-job orca
  C   -2.61141115375727      1.36960286811065      0.11109171668359
  C   -2.21873672230687     -0.09829868968178     -0.08140457495014
  C   -0.85634456467508     -0.49980815134059      0.51776055004834
  C   -0.69281704960031     -2.02535200615970      0.46364943749377
  C   0.31120413938477      0.22860118510888     -0.17368149968658
  C   1.68618413743610      0.00624339284095      0.46747398876851
  C   2.77710367189313      0.85023934798370     -0.19197494582701
  O   4.04781335028131      0.69898112958593      0.42272750888131
  H   -1.93656330532588      2.05271345778730     -0.41223280192295
  H   -3.61963993896903      1.55579469778528     -0.27173644134406
  H   -2.60573040341376      1.64480404000340      1.17153910393118
  H   -2.22572077324627     -0.34596030668927     -1.15183703939094
  H   -2.99151497625336     -0.72928583058308      0.37509945171240
  H   -0.85874836117971     -0.19729298611447      1.57571848651211
  H   -1.53245134847448     -2.52654335007883      0.95570956462547
  H   0.22267628481209     -2.36072884104192      0.95816380290123
  H   -0.65939732043555     -2.37737993609514     -0.57437539238049
  H   0.10787260852617      1.30586934457284     -0.17732454520896
  H   0.34434577499256     -0.07666074009527     -1.22950707248649
  H   1.65162771661750      0.25399464944403      1.53539500178560
  H   1.97379663714533     -1.05090280452356      0.40032890341251
  H   2.53214566738558      1.91413283595751     -0.10302814890728
  H   2.82837477503257      0.62327704938730     -1.26949220316650
  H   4.32593115413046     -0.21604035616412      0.31155614851540
