12
Coordinates from ORCA-job orca
  O   0.00069648040566      0.73551195208287      1.65277657894970
  O   -1.30587828998103      1.48273478619161      0.20698248240394
  C   0.11448645936170      1.57687610008515      0.47373604613581
  O   1.53098004936741     -0.40493794449689     -0.23715054268467
  H   0.61810187712375      2.53506769833968      0.52974349161393
  C   0.31357920869558      0.34234257238785     -0.42083274070600
  C   -0.82741591903516      0.14730262078907      0.61480926140545
  C   1.41880023498037     -1.65131547087236     -0.55653458472489
  O   -1.66978704026349     -0.83293504896572      0.90645969586327
  H   0.04997139756082      0.41432585251295     -1.47624202458236
  N   1.31785535971898     -2.77332417720903     -0.83935331255958
  H   -1.56139081793459     -1.57164994084518      0.29556664888540
