22
Coordinates from ORCA-job orca
  N   2.79264820630210     -0.23714327087112      0.68934330912060
  C   1.39121371585665      0.60655290852249     -0.94698864944977
  H   1.43680630533986      1.24672907114172     -1.82064684207375
  N   3.83432187616758     -0.83318390776021      0.94839618084292
  O   6.70242735206610     -0.86043211837241      0.84913453815559
  O   2.65635307829762      0.13083663793458     -0.64817877525324
  O   5.77611241483596     -1.78508894378138      0.32368090446560
  C   0.27284217642021      0.35069322263017     -0.26855896544369
  O   4.66285746668786     -1.04482987588694     -0.16696795607036
  H   7.18474459890474     -0.58374839716857      0.05251214652362
  H   0.25622016240670     -0.32061622215990      0.58082674917980
  H   -0.89811288662811      1.54773504977453     -1.38599822157065
  N   -0.93637274243470      1.01889705789819     -0.51614908444275
  H   -4.58824256093765     -1.24188975020873      1.78615081052383
  O   -1.99258932495460      0.06028048223707     -0.69293507711293
  C   -4.87104210688339     -1.24300638044083      0.73737455446379
  H   -5.71548550796283     -1.86584817566577      0.46348825520514
  C   -3.08145408077346      0.40347695853527      0.16833938889227
  H   -3.36274252576392      1.45272819564747     -0.00720726082474
  C   -4.21991894648022     -0.51057252241880     -0.15994721669170
  H   -4.51305360905958     -0.53426726974593     -1.20743390567816
  H   -2.78753306140693      0.31010425015910      1.22176511723859
