15
Coordinates from ORCA-job orca
  H   1.25516040433359      2.21942712588125     -0.09160715154354
  H   1.21072437255957     -0.43184267531390     -1.14921445009231
  C   0.61722771076971      1.33947051143932      0.00522771217326
  H   -1.01977745202572      1.75273293498316      1.16459486500600
  N   -0.28140416388244      1.04159359556897      1.15725682715232
  H   -2.69444031627911     -0.31237975364039      0.10012933371967
  H   -1.66268441797204     -1.58731790403091      0.79096139171460
  C   0.94992804629240     -0.16339988469603     -0.12117194209650
  O   -0.46272833249424      1.16134097372999     -0.97558741610139
  C   -0.58936749514266      0.08006397320284      0.03902346770375
  C   -1.75123327441771     -0.85383594619432     -0.01470025096931
  H   2.08545396583399     -1.71053390929311      0.54962330115943
  N   1.67516622158171     -0.85860164531987      0.91372708616900
  H   -1.76325408278674     -1.37883068326976     -0.97326369235147
  H   2.43122881362968     -0.29788771304724      1.28790791835649
