15
Coordinates from ORCA-job orca
  N   0.97963929793327     -0.37543472100532      0.68020258114311
  O   0.78131636348064     -1.55248372384547     -0.31260393400943
  C   1.77577199729318     -0.65273539592308     -0.46684397680022
  F   3.03737183422046     -1.05226022645243     -0.36069533377372
  H   0.55954593761348      1.61114045097636      0.75311826947764
  H   2.30005972736420      1.03512378607981     -1.41048618863699
  C   0.11857646861887      0.75766624467130      0.21218877356589
  H   -1.48737642095037      1.03347959742538      1.38321674724430
  N   1.59489535479746      0.30149465054486     -1.52035219651690
  N   -1.26526177891605      0.72455264398123      0.44775758151293
  O   0.32988151584312      0.87290926795997     -1.20979559975755
  H   -1.82128026333721     -1.34642669593266      0.63923454503100
  H   -3.09023910332227     -0.21924275068387      0.09886916721843
  H   -1.78753800525376     -0.68296499329641     -1.00614582917789
  C   -2.02536292538503     -0.45481913449967      0.03287739347939
