23
Coordinates from ORCA-job orca
  N   -4.08937664454951      0.98156230469754      1.16849902480184
  H   -3.59804630804805     -0.32430147145497     -1.20846500053802
  H   -2.79015435358708     -0.62424506119884      1.77453249211227
  O   -0.86751872762279      0.54059421157891      0.48757316085676
  C   -3.05549592486442      0.08631395309240     -0.35017962494517
  C   -3.55813413486603     -0.40296480188197      1.03090508887622
  N   -3.64838596196115      1.39708932353224      0.06302201097559
  O   1.06327886656664      1.34612732040484      1.41837213356087
  C   0.45067149843099      0.76892616448110      0.35153898707658
  C   -1.58246019382175      0.09933728716271     -0.68027816777554
  H   -4.33134399681711     -1.17546091230717      1.04998040493351
  O   0.88222582610002      2.06615389429694      0.09029158895841
  O   1.05227898065233     -0.25089652309234     -0.34680021645931
  H   -1.24235181719601     -0.90056687380751     -0.96709798012488
  H   -1.39721752378258      0.78969004906100     -1.51191252622179
  N   2.80925460350993     -0.90083528272854      1.02162621921566
  C   2.44240815050867     -0.49602802208641     -0.28135570244026
  H   3.11186019110009     -0.91096952542811     -1.98239376203612
  O   2.74473593524800     -1.41183303353531     -1.22619466430608
  N   3.21744846925125      0.87467718244550     -0.57265081595287
  C   3.87356334248359     -1.09325480558732      1.57060054448127
  O   3.68848540257918      0.85840969004225     -1.66785749295674
  O   4.82427532068580     -1.31752406768695      2.20529129790780
