20
Coordinates from ORCA-job orca
  H   4.44996335653565      0.47820817285048     -0.60992261181402
  H   2.01391294520422      0.09292159815789     -0.79635120380616
  H   4.25820452786749      0.81167921579711      1.20996899471710
  C   3.80912674655942      0.55717527755214      0.25760572626885
  C   2.50545734929191      0.35152434697329      0.13320944784097
  H   -1.89469079676201     -1.25974120189008      1.15930845216351
  H   -0.17615001439953      0.38264622788582      1.98819444792182
  H   -1.36521643997149     -2.47189242164381     -0.02309976244022
  O   1.66925758326313      0.45772541517429      1.22748255233744
  N   0.11155741014991     -1.09628874378579      0.45268022859850
  C   -1.29930666605403     -1.41577682202153      0.24243141414867
  C   0.32210344375928      0.21617126315764      1.02233479987962
  H   -2.38311068148446     -1.15044232485990     -1.55651222753166
  H   0.54155873189231     -1.78951090942786      1.05805639010970
  N   -1.86845633164293     -0.64982771961573     -0.85003663085956
  N   -3.29648383614980      1.14785183869846     -1.26184549581085
  O   -0.16036633573326      1.20769086137828      0.11061716427299
  C   -2.30095393858228      0.63620740900686     -0.66581538253997
  H   -3.33803039167475      2.14912619687763     -1.08116211433999
  O   -1.59837866206876      1.34455231973481      0.29931881088327
