10
Coordinates from ORCA-job orca
  F   2.13256795523294     -1.14505787158467     -0.41498698688978
  O   -0.01710846538573      1.86945324886440      0.53917684256937
  H   -0.91500710862844      2.17438201206741      0.71491512140465
  N   0.78724077329026     -1.02611588623678     -0.83434944031382
  O   0.64146177591428      0.37990075931633     -1.18010140923388
  C   0.06419378300308     -0.77839337891486      0.45278906063608
  H   0.25032884483001     -1.38286534319571      1.32846861038404
  C   -0.07945318828913      0.62559422572841      0.03982391949144
  H   -1.61745029875645     -0.51054168411910     -0.77318312034058
  N   -1.24677407121083     -0.20635608192544      0.12744840229249
