9
Coordinates from ORCA-job orca
  C   -0.92055736354200      0.16475943897564     -0.03469752152485
  C   0.42939720328409     -0.50151249131515      0.17557651062655
  F   1.64605359633014      1.34752024878956     -0.31430145809190
  H   -1.25260118207223      0.04930558905606     -1.06948025580685
  H   -0.85521774772954      1.22988536462720      0.19506010709401
  H   -1.66730045589767     -0.28689101532597      0.62514939211151
  H   0.40614439072097     -1.56673212637415     -0.08909823605819
  H   0.77639830996908     -0.41414819708326      1.21237838734596
  O   1.43768424893715     -0.02218581134994     -0.70058792569626
