14
Coordinates from ORCA-job orca
  H   -0.41053617277374      1.11347498486817     -1.65614004260206
  H   -2.18149147240483     -0.77746758652124     -0.86189925159162
  H   -0.22264103115811     -1.89703394294509      0.79884508331510
  C   -1.39944150343024     -0.40044741161299     -0.20150647422948
  C   -0.41426674991271      0.74302129959551     -0.63145690603921
  O   -2.06506768245825      0.13705164177437      0.91665678136534
  N   -0.25482413034091     -1.27537860801774     -0.00006473569184
  O   -1.12730272656801      1.13493230030726      1.41950439965225
  C   0.70626873764342     -0.21363551497503     -0.16410793972783
  O   -0.71822258870001      1.81241293170301      0.21774148570205
  N   2.03430533084536     -0.41830117241561     -0.65295354947126
  H   2.31551753935491      0.35922514750378     -1.25147487350001
  N   1.76431859285604      0.21189023868466      0.69846694665018
  H   1.97338185704707     -0.52974630794905      1.36838807616839
