14
Coordinates from ORCA-job orca
  H   -3.23060537529197      0.11973013862837      0.48205313735512
  H   3.54285944025568     -0.95513081386013     -0.48054413958063
  H   -0.37973940948035     -0.31557307759852     -1.44454689757628
  O   -2.44009620879758     -0.21466006270219      0.04916309978560
  C   1.97984803172303      0.58578511022979     -0.65278893920827
  C   -0.17353672424725      0.17616392326734     -0.47781022708880
  C   2.59735201162726     -0.50977268394849     -0.23528393556239
  C   -1.46531460863223      0.81550729997096      0.01525696575865
  N   0.90184934694315      1.16801339822481     -0.49286677239118
  C   0.40311701965622     -0.94851300493599      0.46869073154933
  H   -1.74322531180506      1.62525798059260     -0.67401428732287
  H   -0.33341567242075     -1.57169713397460      0.97012078499130
  N   1.63619430322755     -1.23301211971605      0.57119392273805
  H   -1.29528784275770      1.25790104582211      1.00604755655238
