17
Coordinates from ORCA-job orca
  H   2.38371005324106      2.45167860009223      0.01141489176163
  O   1.80569917509921      0.05594342002251     -0.58680578003896
  H   -0.55322404801254     -1.68164226554534      1.08738874471267
  H   0.64851027412263     -0.60144074679433      1.82737471477761
  C   0.51222588379950     -0.46223414063270     -0.32269800287927
  O   1.85120964527900      1.98497621908878      0.67644035969315
  O   -0.94641385965750     -0.18969000320086     -1.79026655650900
  O   2.35956597764988      0.66527636724644      0.58445829871223
  C   0.44129613127555     -1.24385086974579      0.97308654259231
  N   -0.55915638984682      0.52788123640514     -0.59871839206854
  N   0.14041087928542     -1.15758325076151     -1.56311934022144
  H   -0.34297251626072     -2.02737976790030     -1.33041017333697
  H   1.18906637624956     -2.04044754999836      0.94307525120639
  C   -1.60976964848922      0.77841318134994      0.26993545111725
  H   -3.40269873265897      1.02893091000163      0.76945993816649
  F   -1.08704617543438      1.24573303218137      1.42125906764799
  N   -2.83041402564166      0.66543662819113      0.01023998466647
