14
Coordinates from ORCA-job orca
  H   2.95313116811782     -0.37622679124558      0.74140801439106
  C   2.15623080402519     -0.16627990031221      0.02972887116708
  C   0.78996436097906      0.05803765152296      0.51128916458949
  C   -0.17467652139722      0.94512845146269     -0.24047260519480
  O   -1.52832960663267      0.67304057523307      0.04885964289554
  C   -2.00653565110591     -0.53195372272359     -0.52112710536325
  H   -1.48079378383491     -1.41491127827066     -0.13679683535939
  H   -3.06513291708171     -0.60529258867216     -0.26339677877934
  H   -0.00712507772879      1.98612410207695      0.05929533208825
  H   0.02746758818138      0.85871273825385     -1.32078563650875
  H   0.59660897862247     -0.01630961422242      1.58265481750948
  H   -1.90537056912448     -0.52258980190958     -1.61698467699503
  H   2.48268741659221      0.29453650922528     -0.90239730910446
  O   1.16187281038757     -1.18201733041859     -0.10482789533588
