17
Coordinates from ORCA-job orca
  O   -1.88150115903427      0.01474180611864      0.27019288291102
  O   -3.63089163237336      1.37306215482588     -0.19874769395291
  C   -0.99637005588285      0.89804672602053     -0.43695854487667
  H   1.12446748493792      0.82238864133043     -1.05550191302981
  H   -1.01770854055332      1.88706817379468      0.03291797938540
  C   -3.17144288354632      0.38638813576198      0.30707400990021
  C   0.38934603944568      0.32154091919908     -0.42995112584439
  H   -1.34497152208307      1.01888933773398     -1.46829602161014
  H   -3.73905914395893     -0.36425561173631      0.87749784145530
  C   0.70887345491975     -1.10528544384789     -0.16701514756616
  N   2.27658591403868      0.21055242992546      1.10849247293652
  H   2.40056330821156      1.16353132688912      1.45511849679906
  N   0.93360791436778     -0.12100412078887      0.90053760509741
  H   -0.08310014872533     -1.80775177260089      0.06334863057188
  O   3.21524019690686     -0.33694851925831      0.53237553730630
  H   1.59023959660481     -1.48266015585591     -0.67281772891353
  F   3.22612117672439      0.27312597248840     -1.11826828056948
