13
Coordinates from ORCA-job orca
  H   -1.88570910472354     -1.20209211847215     -0.38341756627440
  H   -0.53464396692089     -1.92351183742874      0.23690479172428
  N   -0.87871537759944     -1.12536464669353     -0.28901226368279
  H   -0.27049217061233      2.25744482020901     -0.18818256717634
  C   -0.50520398106745      0.08920147229236      0.35585641389328
  H   -0.13385654778459      1.08327328641301     -1.60961319712562
  N   0.86228674043294      0.47353844030478      0.24318131941720
  C   -0.10280845540874      1.24208727864212     -0.53483834337064
  H   -1.98817244680637      0.39645068935519      1.55221384045595
  O   -1.02739067472545      0.36276099141963      1.62317269121434
  H   2.54735992267180      0.17984264101450     -0.92574169625487
  C   1.87127635247177     -0.34847458153211     -0.22559426789331
  O   2.04607071007228     -1.48515643552407      0.14507184507291
