14
Coordinates from ORCA-job orca
  H   1.27804205391080     -0.03155457781541     -1.66225421258544
  H   1.48837249978506      1.63681027379830      0.54727966959568
  C   1.42573192555033      0.08581340562492     -0.57900722093304
  H   3.26478970386929     -0.48985453695691     -0.45140604039048
  O   -0.14139597388942      0.34556853609425      1.33405888088329
  O   1.72578489571053      1.42340993031581     -0.36661422384469
  O   2.42057352502116     -0.79406156429844     -0.09981357359614
  C   0.16545390021868     -0.34990056398053      0.15661578016808
  O   -3.34826389856697      0.58962169855998      0.24723144165241
  O   -2.94855771621454     -0.39336578650483     -0.81772936866600
  N   -0.96517536977996      0.52982882148707      0.09224663479574
  H   -2.17000755863457     -0.94997776680123      1.08893186668676
  H   0.00946592492318     -1.42957983388701      0.19112540599279
  C   -2.20481491190357     -0.17275603563596      0.31933696024104
