19
Coordinates from ORCA-job orca
  O   0.81532536780220     -2.58586891869914     -1.25178977575212
  H   0.27666355838217     -1.98361565767113     -3.20015722659989
  F   2.10719464705387     -2.74001816367565     -3.13429792833504
  O   1.57079523930424     -0.83618017792137     -1.99080784739954
  O   2.29679145612770     -1.48459093138519      0.14971437671973
  C   1.13050305265492     -2.05206244137751     -2.51874042013054
  C   1.25507778821801     -1.37298467140149     -0.68490431491818
  O   0.15180161101060     -0.72298373431001     -0.11724749894336
  H   2.18154050785249     -0.79582324724809      0.82925261367763
  H   -0.94101991278578      2.51874063014314      2.42624811124537
  N   0.57254909265086      0.22414948259049      0.85240482947219
  H   -2.12343879405277     -0.04458434344339      0.54454641563731
  H   -1.59028186617067      1.12185281352736     -0.64120882341350
  N   -0.14830195467391      2.07610191820707      1.98836647507449
  C   -1.73227927058144      0.97118482794861      0.43389913680103
  C   -0.37582944147196      1.05292290592058      1.11565597183206
  H   0.70375038635031      2.04010975309689      2.52570884672031
  N   -3.44992572466595      2.68426096493640      1.40565559159325
  C   -2.70091674300488      1.92938999076245      0.95231146671879
