11
Coordinates from ORCA-job orca
  O   -1.26398886555989      0.93536566293393     -0.85783320176033
  H   -2.02430655663843     -0.90969959209017     -0.08205332901289
  N   -0.51916891555145      1.57336446956236      0.22531515402102
  C   -1.17024455430236     -0.23132549306240     -0.03259401104386
  H   0.31193889664780     -1.88958654699180     -0.52532044577853
  O   -1.07672971543473      0.57231805396418      1.14965065601664
  C   0.20951397689946     -0.84101977278038     -0.26251985717968
  H   2.17422086725033     -0.38946641429494      0.98225205869627
  N   0.93314775590639      1.20743843100668     -0.01152539317265
  C   1.28850818708915     -0.11749979113799      0.42374730732777
  N   1.13710792369373      0.09010999289053     -1.00911893811377
