14
Coordinates from ORCA-job orca
  F   0.80032506247673      2.17594155583196     -1.07852474925994
  H   2.38704114190270      1.26547531447978     -0.54222567964336
  N   1.54009637781936      0.97686215740130     -1.03391306075733
  H   1.55488554001452     -0.81838509772948     -0.11776687765115
  C   0.86143842259790      0.02255361584929     -0.20856243074268
  C   -0.82974896901763     -1.48171286970639      0.27927655977848
  O   0.53712773254013      0.50939247678092      1.12472713635984
  H   -0.15274406254233     -2.33756981843481      0.23912648050309
  N   -0.43082836546588     -0.43591204433235     -0.73112466629584
  H   -1.84144088605474     -1.83116054072806      0.03527341606723
  C   -0.93340174577348     -0.78885872304592      1.61272676479560
  C   -0.92954884749820      0.60752789695096      1.09277409515072
  O   -1.25724130156416      0.66117989218304     -0.27178195831735
  H   -1.30596109943493      1.47466518449975      1.62517197001271
