10
Coordinates from ORCA-job orca
  H   2.91792082164932      0.14340141236021     -0.53435086196632
  O   2.37919563957218      0.85115503606905     -0.14634704805164
  H   -2.57489923231218     -0.35869765724820     -0.04203099571174
  O   1.46021791458221      0.10841169775313      0.64788230072318
  N   0.45665398142640     -0.38097134210282     -0.28052094414784
  H   -0.80698052059893      1.57221297614416      0.06743113567989
  H   -0.72115134778826     -1.16293099554910      1.58908597071518
  N   -1.67994589980154     -0.56662176005884     -0.49884551027895
  C   -0.74140815560386      0.50714823711954     -0.06762405220206
  C   -0.68960320112535     -0.71310860448714      0.61184800524028
