18
Coordinates from ORCA-job orca
  H   3.49075315784043     -0.71194877467382      0.10249540846484
  N   1.42836336686805     -1.42581427502839      1.28442533052266
  H   0.45845267473171     -1.58741182398516      1.54860428738972
  N   2.67685948989764     -0.26191593591539     -0.29087164722414
  H   -0.40354554211078      1.90768763942937     -0.87776827757682
  C   1.48335337378256     -0.71109295545040      0.23482058545986
  H   2.70208530139050     -0.13655349539539     -1.29138224365128
  H   0.91547023807354      1.79608553960971      0.30980980605245
  C   -0.01955944049998      1.33989669684228     -0.02459949337147
  O   -0.78305256858869     -1.00693342789405     -0.30437840954490
  H   -2.68897571274594     -1.48139743161136     -0.72360742798213
  C   0.26087229994671     -0.11999257195121     -0.48089190317608
  H   -2.13313008502723      0.06554082362712     -1.46582737797398
  C   -2.09812724104180     -0.57488587164154     -0.57807863752799
  O   -0.90694781283925      1.44019126530106      1.07398244223073
  F   0.55202354619592     -0.01200983560218     -1.84648646257955
  O   -2.24238155377709      1.41854017283146      0.56159880686805
  O   -2.69251249209632      0.06201426150789      0.52238021362003
