19
Coordinates from ORCA-job orca
  C   -3.16765147649049     -0.75930531721273     -0.91713842132602
  H   2.76461476816845      0.80514694804442     -0.38667367173912
  C   2.07918885757171      0.81832453803950      0.47114269821040
  C   2.31972783351850     -0.46415590763152      1.30113219231702
  O   2.23245890463448     -1.62541830256141      0.52758242129988
  C   0.67668150192187      0.92130875514733     -0.02012847167657
  C   -0.35235931355582     -0.02103266746540     -0.16498819790508
  C   -1.40315195494677      0.81298417321948     -0.67794000174539
  O   -1.05185209162134      2.09366019397286     -0.81486374576032
  H   -2.38812673406072     -1.43955876917381     -0.57273418835551
  H   -3.54739265136272     -1.03513588849861     -1.90076143516288
  H   -3.98935749442919     -0.69208685025155     -0.20335752869971
  H   2.31691543124384      1.71286837760245      1.06075776227788
  H   1.62277223069496     -0.47597958326598      2.15376138145710
  H   3.33402197494820     -0.40655734811089      1.71108963883587
  H   1.27850761479927     -1.74454171937637      0.31851523922536
  O   0.30289702795776      2.17527746977520     -0.39396554838482
  O   -0.40196583009671     -1.26652289201326      0.07617570098368
  O   -2.62592959889531      0.59072578976026     -1.05684782385178
