13
Coordinates from ORCA-job orca
  H   -2.26574651491758     -0.79331948495987      0.21115226594046
  O   -2.12894436650272      1.17278129892223      0.54512204245595
  H   -1.80209479253004      1.97069597013173      0.11318285640717
  H   -2.47015133846528      0.20978676511514     -1.27203778858696
  O   2.29727911703516      0.42600502664287      0.08049084756060
  C   -1.92864463821403      0.09927398876417     -0.32285384817244
  N   1.10604104781723     -1.46099464064369     -0.23345639482397
  C   2.20310934368232     -0.82896198237633     -0.38760575877472
  N   1.00788418096917      0.60203965711196      0.77852973954759
  O   -0.58424495390949     -0.04724460492916     -0.74009210813998
  H   3.08307515976969     -1.22214911389543     -0.87910496812411
  N   0.20936869950291     -0.49725893476098      0.36803802546813
  H   1.27307005576267      0.36934505487735      1.73863508924227
