19
Coordinates from ORCA-job orca
  H   1.64454602907870     -0.64796470852806      2.18138003657681
  H   2.35173983059025      1.08658004394863     -0.05438877717423
  H   0.27885522580723     -1.29870947373484     -1.40627465929936
  C   1.96592078398170     -0.47349879661168      1.15085161328939
  N   0.78830352352575     -0.60094552252936     -0.86791454770311
  N   1.84806639698407      0.93267266528363      0.81761480736776
  O   1.13637378784304     -1.33289659554752      0.34716878562875
  N   0.44513839213361      1.27221725784249      0.61005216263790
  H   1.02675717304183      1.82136381493106     -1.30031154201128
  H   3.02398272905015     -0.73989302217441      1.03897984202619
  C   -0.13494013536168      0.40919383615824     -0.43245911668460
  N   0.16382424984528      1.79178029982198     -0.75169297167843
  H   -1.94195428008076      1.92860633008503     -0.56238227873638
  C   -1.60763076179862      0.07631868851104     -0.35327733652022
  O   -2.42355939814952      1.16104187170417     -0.21858912776074
  C   -2.08396449941257     -1.22062969790242      0.11391494913420
  H   -3.09995589237479     -1.26802980286604      0.49894520032532
  O   -1.99214444960439     -0.93078848612322     -1.30360800252105
  H   -1.38936070509929     -1.96641870226872      0.49199096310305
