13
Coordinates from ORCA-job orca
  O   3.09056893294974      1.55072033006957      0.25321617866306
  O   2.10880958404995     -0.50255838852169     -0.07210091294413
  H   -3.28642191777466      0.55247976870823     -0.54527384060035
  H   3.79254233706785     -0.27089760308352      0.89886911558304
  H   -0.17375723065053     -1.24423030756979     -0.01037526274363
  H   -2.53315310742799     -0.96863882748759      0.00925893116627
  C   3.05489259658576      0.37081737951928      0.38527428939560
  O   1.08098986203820      0.19158099215548     -0.82062849171287
  C   -2.48577726151452     -0.16464660279068     -0.73360784578962
  O   -0.70039223218191      0.68392698852559      0.68816526541479
  C   -0.12066242001766     -0.17652589609327     -0.22717741184122
  N   -1.21146537494144      0.55428671381221     -0.73166316891911
  H   -2.61617276818279     -0.57631454724383     -1.73963884567182
