10
Coordinates from ORCA-job orca
  O   -1.50055237601530     -0.02243212077402     -0.85092247465272
  C   0.59803599989587     -0.43462767597313      0.21515314771390
  H   -0.68295914328781      1.24654490591202      0.58843759495875
  H   1.24384998141059      0.73565502375333     -1.41799213406288
  H   0.85259292173570     -1.23873257729180      0.90124015557532
  H   -1.29790244193272     -0.28804114902413      1.21472992566500
  H   2.44753576492113     -0.52202159408796     -0.80220678949584
  H   -2.35908248256064      0.40383200780650     -0.75598405547468
  C   -0.77609248953130      0.17202364331164      0.36353600439524
  C   1.47457426536448     -0.05220046363244     -0.70683637462209
