14
Coordinates from ORCA-job orca
  H   -0.70159329331501      1.50856309976646      0.10344225585107
  H   -2.29260220894092     -1.51040061667019      1.22646848656778
  H   -2.53900535859313      0.24635683214436      1.04712916576233
  O   -0.67530990017414     -0.52039143260566      0.51872312335881
  H   1.67804856689227     -1.29316713827371      0.59911116603167
  H   1.62072568590446      1.37627970561833     -1.02234381635114
  H   -0.60195383618295      0.44798408559684     -1.31543934454582
  H   3.12740896443171     -0.47152243804985     -0.20003099990756
  C   2.12360744766367     -0.38125255718106      0.21227000763898
  C   -2.07607363031910     -0.64512051044230      0.59726610040881
  C   -0.26303627418934      0.56714017830688     -0.27068002224153
  C   1.24089131779722      0.68860861041005     -0.26400760274892
  H   -2.52754161531767     -0.80431000282329     -0.39440001491660
  O   1.88643313434293      0.79123218420313      1.00117549509213
