13
Coordinates from ORCA-job orca
  H   -1.73108359047590     -1.45924191187876     -0.45391265152470
  O   0.54485179960443     -0.67341520000583      0.56459344286269
  C   -1.72678514286403     -0.46806073202534      0.00669727116273
  H   2.48797083453504     -1.01890221494758      1.00943289857136
  C   1.90522913717163     -0.30149067791640      0.42940103813661
  H   2.08649763235550      0.70882150497267      0.81067123214070
  H   -0.62952790057809      2.09702545743344     -0.10671794315417
  H   -2.46870373789589      0.15791214444087     -0.49723139135624
  C   -0.34755766922552      0.15953250766247     -0.10101630532042
  H   -1.99938698847223     -0.56059094582840      1.06045647383679
  H   2.22641997410710     -0.34787603101363     -0.62259336239302
  H   -0.04446498711822      0.26458387950311     -1.16146815876728
  O   -0.30345636114382      1.44170321960339      0.51782045580495
