12
Coordinates from ORCA-job orca
  C   1.30648938132725      0.22474718913642      0.08025760348128
  C   -0.03007917166271     -0.51402573857180      0.15746164082828
  H   1.32089526549399      0.91002859132384     -0.77628027868432
  C   -1.21818960354216      0.43839278765343      0.29613601374000
  H   -2.15451839049918     -0.12421428201263      0.33129713469819
  H   1.48502626240871      0.81658487210855      0.98363130054365
  H   -0.01239792982975     -1.18359224284573      1.02544861145261
  H   2.12784581080655     -0.48643066615915     -0.03831382283968
  H   -1.13890326404168      1.04165461977964      1.20602878345426
  H   -1.26383304197977      1.12554782622724     -0.55777188097785
  O   -0.19985234939641     -1.39203242241099     -0.95325063901223
  H   -0.22248296908484     -0.85666153422881     -1.75464446668420
