16
Coordinates from ORCA-job orca
  O   -1.65833436622267     -0.58190572168171      0.71337364589621
  H   -3.64848392755969     -0.91388792110285      0.85083006819028
  C   2.94936808863095      0.35332506819239      0.49903724742110
  H   3.29274301316941     -0.63691627012472      0.18044832487142
  C   0.68436901133227     -0.27187667184835      0.54822363929886
  O   1.62456351254118      0.60605077685149      0.05234684437614
  H   3.01518809442777      0.41935161088425      1.59444925382216
  H   3.58297967715036      1.12089737504965      0.05298886222796
  H   -0.78269469197311      1.27440148980891      0.37232420943929
  H   0.73692895647887     -0.35820898570580      1.64563117972609
  C   -2.96800326506896     -0.24493155914454      0.32037412370214
  H   -3.11309806653032     -0.37247399925804     -0.76355494734962
  H   -3.21667285320598      0.79677358729970      0.57782953131804
  F   0.90669569935241     -1.54599041626978      0.05297200495952
  C   -0.67959629444086      0.21288107835561      0.09563436584390
  H   -0.72594958808165      0.14250855869381     -1.00286335374349
