14
Coordinates from ORCA-job orca
  C   -1.61819293532798     -0.69277343221521      0.35052368719578
  O   -0.47554899339984     -1.17395624237196     -0.32725595759507
  C   0.38758923986054     -0.05551302904797     -0.58750085002662
  C   1.73828329572420     -0.29376303098209      0.07212613817009
  H   1.62671547769124     -0.33287288426071      1.15981406298469
  C   -0.39753132275528      1.13775558107081     -0.00116555307894
  H   0.23070321626977      1.86146869540779      0.52196285705841
  O   -1.26303887229376      0.52817825973106      0.94658822980317
  H   0.50460305063950      0.04888358657681     -1.67354536447266
  H   2.43925876329899      0.50840097930967     -0.18265480027075
  H   2.16490384585883     -1.24205643235720     -0.26514700842902
  H   -1.91360966205486     -1.39821744707933      1.13293520242376
  H   -2.44943245995444     -0.55232674850281     -0.36553104231707
  H   -0.97470164355692      1.65679314472115     -0.78114860144578
