17
Coordinates from ORCA-job orca
  C   2.24407934514693      1.22636568554880     -0.22281136927254
  C   1.48387468568575     -0.00164253175788      0.03619550533577
  H   2.03066627969667     -0.94616332641117     -0.01904538281971
  H   -0.36000547414302     -1.96251687883298      0.11156999252855
  C   -0.82114002239443     -1.01135016984869      0.40878062363231
  C   0.25224068360624     -0.02988535179242      0.90871510970975
  O   1.39275451270766      0.67043064426421     -1.22642576572477
  H   3.31160223884034      1.17344002615388     -0.43218367911607
  H   -1.50994445332767     -1.25119495206873      1.23022871286444
  H   -0.18334037403688      0.97255813398569      0.97092291835378
  C   -1.63936341955212     -0.46237630672455     -0.76551980661033
  H   1.90407549946981      2.16651550945336      0.20949935098995
  H   0.57010987335601     -0.30993704860480      1.92099354429528
  H   -2.31091064869317     -1.24560949735373     -1.14852890508087
  O   -2.36965653304520      0.70829905494764     -0.41633306831094
  H   -3.01739778452979      0.46525260053842      0.25364858321368
  H   -0.97764440878713     -0.16218559149703     -1.58118036398828
