12
Coordinates from ORCA-job orca
  H   0.15613298009320      0.54939736675375     -1.36998736489498
  H   0.05792261160466      2.17406668125101      0.31377585411193
  O   -0.61472644713706      1.48520870359746      0.31463598429948
  H   1.64530892351190     -1.00451322807184     -0.10129490432816
  H   1.98424984779550      0.67678181996085      0.32667530927889
  C   -0.06577754875251      0.32679330363971     -0.31271639880224
  H   -0.82151608427328     -1.65849949493399     -0.75285075123654
  C   -1.15028193494902     -0.74051880503697     -0.25760438320326
  H   -2.05813283171564     -0.38405149025790     -0.75090574158340
  H   -1.39626810206499     -0.97347014387252      0.78308483655093
  C   1.22587023798985     -0.11311991575624      0.37644135025584
  H   1.03721834789739     -0.33807379727330      1.43074720955151
