12
Coordinates from ORCA-job orca
  H   -2.25759108159378     -0.76097970585519     -1.19509466991017
  H   2.12112487577413      0.87177788976890     -0.43591244041777
  H   2.12754981895397     -0.58290885352645      0.59484224803550
  O   0.32159242373945      0.45587329130153      0.52983419729999
  C   -0.26563022904458     -0.28600613402345     -0.51947852758905
  C   1.72838348500828      0.43885950089094      0.49744720441885
  H   -2.10844081613323     -0.59699968174299      0.56620386400130
  H   0.06335778500928     -1.33795038912310     -0.47125546695041
  H   2.08482825424430      1.03652806619437      1.33873366211233
  H   -2.10477929114856      0.84733162122514     -0.45952694859505
  H   0.06643506886217      0.10755600711308     -1.49519315281840
  C   -1.77683029367143     -0.19308161222276     -0.39354896958710
