10
Coordinates from ORCA-job orca
  H   2.45940234702059     -0.22198474825816     -0.45566332220995
  O   -0.51104581991447     -0.02806386067957      0.78666052606366
  O   0.62869490448510     -0.69702277964654      0.18284828383863
  H   -1.45036538092660      0.17268886795471     -1.06632610294335
  C   -1.60567192160478     -0.26730703206714     -0.07302509069288
  H   1.89283028365054      0.78875031794685      0.90659337922998
  H   -1.80854477930111     -1.33976185223761     -0.17610245975650
  H   1.25150500961521      1.06741878629129     -0.74232714500939
  H   -2.45621378809727      0.21949917126688      0.41336362886176
  C   1.59940914507278      0.30578212942929     -0.03283969738196
