12
Coordinates from ORCA-job orca
  H   1.99951165760466     -0.48302570574303     -0.73226365666864
  H   -2.08533740039240      0.64212936888843      0.07781707580998
  H   1.43454814146921     -0.47158606110835      0.94867896642524
  H   -1.61831676858726     -1.05193177268270      0.33726618376284
  H   0.57852626580890      1.84457197194832      0.35377003571995
  H   0.88481629559354     -1.74026028339029     -0.15633127424609
  C   -1.26995243212781     -0.01554209426317      0.38945808218632
  H   -1.03420943178188      0.20498158864748      1.43787434511166
  C   -0.04302080411822      0.20181034734622     -0.49699951379037
  C   1.13884632812387     -0.67775144453539     -0.08744057351698
  H   -0.31265145675950     -0.03173645705362     -1.53368278729722
  O   0.32723960516690      1.57834054194610     -0.53814788349669
