12
Coordinates from ORCA-job orca
  O   0.42124945299376     -0.16386415587586      0.69778821919063
  H   -2.15526303963827      0.44735701127289      0.61646141677360
  H   2.23861540281260     -0.56662507172450     -0.23995433022988
  H   -1.92887646161053     -1.23677581876674      0.11630603210637
  C   1.79839292842093      0.07691283238763      0.53775140152457
  H   0.03753592130013     -0.55106645887185     -1.29974044317441
  H   2.28417220021465     -0.14176346099350      1.49078209617676
  H   -2.39252448305907     -0.01177539814867     -1.08185774428198
  C   -0.32544975917827      0.08600780723029     -0.47542249217866
  C   -1.79021754667947     -0.19627718485136     -0.18781545008340
  H   2.00120756909966      1.12548352767414      0.26920286773342
  H   -0.18884218467613      1.13238537066752     -0.79732457355702
