18
Coordinates from ORCA-job orca
  H   -0.58593865667230     -2.36961766577959     -0.24654151022540
  H   -2.07265542254181     -2.53432644161560      0.73035025572595
  H   -1.82986351658461      2.62939609074321      2.14192052811712
  C   -0.96731088980801      1.67797549464602      0.71821873969066
  O   0.33971680450018      0.32688955103043     -0.68374010902351
  C   -1.13280881738031     -1.99038350214049      0.62308403836929
  H   3.19261027973602     -1.01929244546689     -1.33072017112062
  O   -1.54038115036351      1.72596673532582      1.97364367358193
  H   -0.15147573420233      2.40515925949274      0.59757352799182
  O   1.36319474619665     -0.71137263870996     -0.60261619200837
  H   2.83794908517522      0.70440779151226     -0.99029547810765
  F   -1.89695069816115      1.96022951875310     -0.25415286251049
  C   2.43390129056596     -0.23400866665609     -1.38838326644547
  C   -0.41125181328476      0.26236839516510      0.51618694478319
  H   -0.51973560948620     -2.14935946523321      1.52113375922141
  O   -1.47207551887232     -0.62078664167425      0.46954657152824
  H   0.28046828504153      0.02822380307316      1.33896696588417
  H   2.13260633614176     -0.09147017246574     -2.43263141545228
