13
Coordinates from ORCA-job orca
  C   2.23283332826227      0.21885655293908     -0.16603508375980
  C   -0.86634736255391     -0.69346148321909     -0.13601014277333
  H   -2.34462719322632      0.74696601358468      0.51357516364182
  H   -1.29354948379856     -1.53652909325963      0.42004884543912
  H   -1.48057409862764      1.20683769909583     -0.96642551978220
  H   -0.43636733864862     -1.08633201266397     -1.06775969451959
  C   -1.91886175703044      0.36920167858555     -0.41996962989657
  H   2.23355889903681     -0.70437754993044     -0.75958352643183
  H   -2.72715383897130     -0.05285171439400     -1.02598525068375
  O   0.93268033340244      0.75197229360573     -0.01977584416115
  O   0.17325244512546     -0.24060568232943      0.72231092748153
  H   2.69860235878608      0.02722806421102      0.80757090605504
  H   2.79655170824372      0.99309423377465     -0.69519215060930
