15
Coordinates from ORCA-job orca
  H   1.39629865624483      1.13667811911908     -1.06586677239039
  O   -0.97742139176373     -0.50342396522943     -0.40526346749199
  O   0.39688271328723      1.01280115256701      0.74794973535097
  C   1.17026176073708     -1.15951695628595      0.38842418916105
  C   -0.09264519687552     -0.31252122824739      0.66220611029418
  H   -0.59255338660171     -0.52607149814685      1.61616205333894
  C   1.60661618050034      1.02009612264445      0.01086131547840
  H   -2.80780255276289     -0.03494133099266     -1.13931438694581
  H   -2.74634242090998     -0.14530428557179      0.63987264870665
  O   2.22659239009732     -0.21287087634276      0.27510379389820
  C   -2.20635305017223      0.19076800446801     -0.25744492698053
  H   1.40710462908486     -1.84851236907816      1.20221972354331
  H   1.02704727611946     -1.72299934979945     -0.54148785586404
  H   -2.04981172483718      1.27312967750223     -0.19134493186497
  H   2.24212611785212      1.83268878339366      0.36957577176603
