20
Coordinates from ORCA-job orca
  H   3.35232430064716     -0.50361921159005     -1.51705023581674
  H   -2.21981073967500     -0.08443666716664     -1.64545894132499
  C   -0.87100486334694      0.47199265944379     -0.09687925511835
  C   2.92889720212466     -0.53343768912035      0.61857805950721
  H   3.75129420666358      0.12668505038083      0.90769351708713
  C   -3.23118017119523     -0.36255606309986      0.26022537883719
  O   -0.08585285901874      1.12087013008570     -1.03301004021566
  H   -2.62619753953786      1.42417288789917     -0.82826099740400
  H   -2.86713884829305     -1.37723595297936      0.43832095127670
  H   -0.82555435685253      0.98539950302687      0.87161834299420
  O   1.16411620828283      1.52816712170497     -0.35043073473656
  H   -3.32886742327535      0.13710993912883      1.22954373366909
  H   2.08256377754090     -0.36310855553287      1.28629959040309
  C   -2.28022210975409      0.39913745504359     -0.66490694825654
  F   -0.39435027132041     -0.81737046317482      0.12585154073454
  H   3.25428173786872     -1.57083945646689      0.74430754069261
  O   2.22619546780338      1.07385657485185     -1.12732124107873
  H   1.67241950571745     -0.92497484491255     -1.11149798658441
  C   2.52589043889205     -0.30255392161755     -0.82758863153741
  H   -4.22780466327156     -0.42725849590466     -0.18358364312837
