12
Coordinates from ORCA-job orca
  H   1.22055035453361     -1.47055006076953      0.26451412995552
  H   1.41045344289637      0.07969539396578      1.11401624105158
  H   -1.38086091404549     -1.30489204324890      0.61460613986044
  H   -0.27152628409732     -0.37069374179607     -1.41090251546543
  H   -2.21949336154082      0.14886672921313      0.03501461174905
  C   -0.10960556497694      0.10787901528647     -0.43037289898463
  H   -1.15983357909341      0.24722188960979      1.45154902019413
  H   0.63881099942008      1.76859708913941     -1.13913953032494
  C   -1.28999353212195     -0.22428867292624      0.47246534387771
  O   -0.11063567931017      1.52676080410922     -0.58524856147121
  H   2.05140760848792     -0.12580280095090     -0.52692464734392
  C   1.22072650984812     -0.38279260163215      0.14042166690171
