12
Coordinates from ORCA-job orca
  H   -0.24035501266830     -1.30623573484343      0.50858405974080
  H   -0.08928609084330      0.16004267608680      1.49097696683657
  H   -2.07850809566213     -0.22121601288450     -0.82695292493731
  H   2.41256995468608      0.55328031262790     -1.07175789280378
  C   -1.80053258408150      0.15868456451475      0.15926683253086
  C   -0.36407435011025     -0.21013881101093      0.48866523321433
  H   -1.92782301583216      1.24407636249137      0.15700144842561
  H   2.04562373720962     -1.00813120477584     -0.29372388100854
  O   0.48310716115684      0.35762069629268     -0.48916026200718
  H   2.19456222378761      0.46751836980487      0.69543774579861
  H   -2.47970302841892     -0.26986612077799      0.90166173484066
  C   1.84442010077641      0.07436490247432     -0.27181106063064
