15
Coordinates from ORCA-job orca
  H   2.45489136502083      1.35159498790694      0.22780429362137
  H   1.34841395106953     -0.12493813523729     -1.22717864522894
  C   -2.08225200216198      0.60034355912789      0.58929184666729
  H   -2.16219829092317      0.10180299367437      1.55805928561545
  H   1.51587007675408     -1.39483070656081      0.02636393101604
  H   -3.03085486859079      0.50166463852033      0.05844930340663
  O   0.23278273071682      0.17973116540037      0.49551864466697
  C   1.37737942643995     -0.31905671124282     -0.13754572562610
  N   2.49726180269519      0.36896641936474      0.50515213372252
  H   -0.87907152381987      0.40558823228115     -1.21400740111870
  F   3.63306551126198     -0.08615933700317     -0.22535382166945
  C   -0.97268335831523     -0.04811294366076     -0.21136218928322
  H   -1.86318606618349      1.65743995433522      0.75169211345929
  H   -0.80322922936029     -1.77515483684174     -1.10411348232920
  O   -1.26618952460357     -1.41887928006439     -0.33949928691994
