12
Coordinates from ORCA-job orca
  C   0.91208345319453      0.62050314182828      0.12304534384500
  H   -1.90894661205367      0.62923090765216     -0.22031620863180
  O   2.24900093271698      0.18715246573337      0.26639480737458
  H   -1.43242458528446      0.59105199979923      1.50213663617979
  F   -0.21727412768305     -1.10453302963199     -1.06053509578125
  F   -2.33289409444029     -1.06519317935455      0.78639873003612
  H   0.79400843088524      1.20872580608338     -0.79477335434599
  C   -1.49160105708287      0.00235115750021      0.57771777360557
  F   2.53055173714712     -0.58222151536545     -0.90662599753732
  H   0.80188076139356      1.28022761151460      0.99336260310632
  C   -0.11605985561509     -0.50470309125617      0.17806494037511
  H   0.21167401682199     -1.26259227450306      0.90064682177387
