20
Coordinates from ORCA-job orca
  H   -2.60793219838310     -0.94688315361301     -0.07086278443975
  C   3.16489139708498     -0.55936791263424      0.22110430281989
  H   -0.41200250656338     -1.29492519787578     -1.23454350957238
  H   -1.77502789036704     -0.10822306232414      1.24898085501715
  H   -3.80857518506171      1.12796660332670     -0.58191309945611
  H   0.86442173716537      0.61953043031739     -0.25370518370209
  H   -2.93569241912571      1.96767349223956      0.72587946163755
  C   -2.87694957163047      1.65850030791395     -0.32955505861713
  C   -1.72345377337298     -0.33394521980021      0.16906773082915
  H   -0.47763821765969     -2.06926893072763      0.34952205686454
  H   3.90700823795336     -1.35810841516204      0.09503863021586
  H   3.48771435544146      0.25700336304186     -1.49782636226437
  O   -1.74125465838805      0.86555942466051     -0.57951584781758
  O   3.45375120378399      0.55816416620319     -0.58244031894880
  C   -0.44950962734408     -1.09871091863812     -0.15804901967470
  H   0.79350966745487     -0.14952069347291      1.34398564072685
  H   -2.79864359152545      2.55056101471900     -0.95433702393108
  H   3.19640608223835     -0.18468251240503      1.25427573888249
  C   0.80594229005799     -0.34631369425954      0.25860558658829
  O   1.93303366824128     -1.15500809150952     -0.06624379515778
