14
Coordinates from ORCA-job orca
  O   1.15819803754464      0.11166707933570     -0.36933462323133
  C   2.39204244673809      0.48205621178647      0.19895257835049
  C   0.14469428165383     -0.07961616944284      0.59132037595798
  C   -1.11892576054626     -0.48234339168870     -0.11381864327693
  C   -2.43238261452419     -0.27446488308368      0.50313211505012
  O   -1.98130354305671      0.56664167222884     -0.55946950272789
  H   3.10561046602886      0.59906762770788     -0.61895072759644
  H   2.31999089917815      1.43347594557780      0.74860863871029
  H   2.76857654378465     -0.28505928645100      0.89444636162411
  H   -0.03750440091905      0.84247492862080      1.16765518584476
  H   0.43663299987443     -0.86947252028743      1.30707410291528
  H   -1.00015427433760     -1.30060585741378     -0.82477902248582
  H   -2.50187297581322      0.20254827149166      1.48041503094299
  H   -3.25360210560562     -0.94636962838174      0.25878412992240
