16
Coordinates from ORCA-job orca
  H   3.08253074169627      0.15403412753131      0.15053875410767
  C   1.14412087498389     -0.77706107518779     -0.18829465517916
  H   -1.96204306047938      1.64544534872642     -0.83727919884406
  H   -2.37153440697577      1.60363544184567      0.89877526538894
  C   2.06930881018116      0.43938447415027     -0.14642487873142
  H   2.13587138973219      0.91832647343038     -1.12940989257141
  H   1.51609311543092     -1.52752980514110     -0.89320307378876
  H   1.69930499319890      1.18230575886283      0.56406820203001
  O   -0.81189544259627      0.41475875953731      0.39100174187484
  H   -2.81599880073172      0.23469352298833     -0.15927257706167
  C   -2.05679425992140      0.99791379399795      0.04704610387152
  O   -1.08078218845589     -1.58348747067424     -0.78793811455845
  H   -0.30156557230461      0.07101951808439     -1.57750301739883
  C   -0.28363016914447     -0.43303052575282     -0.59834102556680
  H   1.09994842238169     -1.25410823165059      0.79990897471106
  H   -1.06293344699550     -2.08630011074833      0.03601739171651
