11
Coordinates from ORCA-job orca
  H   2.95010273907199     -0.36942436156924     -1.22523852358954
  O   2.36283925971129     -0.56739714184551     -0.48158586737749
  H   0.15277271036022     -0.03919282393478     -1.40875965737196
  H   -0.03170916963777      1.56765166399008     -0.60991770650620
  O   1.72690129412933      0.72856509075748     -0.32689616555871
  O   -0.18511727061557     -0.08963310298412      0.62665050738711
  H   -1.73921080175475     -1.03412072862026     -0.39720261260623
  C   0.36181090086948      0.54269519344526     -0.49455427015068
  H   -1.88346091940932     -0.89310601420913      1.37382783353844
  H   -2.15899841109978      0.53345899211770      0.34330885199040
  C   -1.55593233162514     -0.37949676714746      0.46893761024487
