15
Coordinates from ORCA-job orca
  O   0.81599088454164      1.37097274771616      0.74822977087511
  H   -0.87826356147839     -0.15155496919036     -1.70202031738036
  H   1.08637588951366     -1.02609099605284      1.32269561337926
  H   0.57181185381822      1.72040150574739     -1.27556007311214
  H   2.44342070099902     -1.34832531605094      0.17544020881959
  C   0.00398059908780      1.33258339942016     -0.42237336254385
  H   -2.45748102266774     -0.00749949883609      0.16921601987312
  C   -1.53250769135995     -0.57592969163416      0.30815273996526
  H   -1.75040419421088     -1.63441881249727      0.14679877448257
  H   -0.83583654981536      2.00059459380450     -0.20516800124454
  C   1.54641471565903     -0.75202588238003      0.36280387249649
  C   -0.47181466625213     -0.10191885705237     -0.68637793674218
  O   1.99559272506970      0.57891553708890      0.42625311804715
  O   0.67034215984859     -0.96802328433999     -0.71051572037660
  H   -1.20762184275321     -0.43768147574305      1.34242529346111
