14
Coordinates from ORCA-job orca
  H   -1.46957690814980      0.94271617954251     -1.04558303963460
  H   0.75872619575247     -1.91456357468561      0.08150338851841
  C   0.18789216384749      1.37042362813398      0.93648364752239
  H   -0.31672213525527      2.27129189885752      0.58731975328130
  H   -2.03362564098887     -1.22210191977449     -0.40560430334908
  H   1.06206769417587      1.55454850763789      1.56044958931910
  H   1.66248960637771     -0.90342816427888      1.23303103473072
  H   1.94593388700679     -0.74592790498932     -0.51546785251957
  H   -0.16006536658452      0.17828341354850     -1.97209654327470
  C   -0.77576169145371      0.09025630772921     -1.07046538941566
  C   1.18397663233917     -0.92168812374913      0.25156336447703
  O   -1.47457081826425     -1.13807697466563     -1.18729377021694
  O   -0.66887552784759      0.31393847708847      1.37777064355832
  C   0.09811290904452      0.12432724960496      0.16838747700328
