11
Coordinates from ORCA-job orca
  H   -2.22886399290499      0.27769987797411      0.90483455042414
  O   2.23414238822238      0.10720335529002     -0.11716629925090
  H   -1.77885871172318     -0.43677970381312     -0.65223333521140
  H   -1.70581779340304      1.32547597117122     -0.42299675762125
  C   -0.11213628972645      0.24624572425211      0.52736670446015
  O   0.38122138194819     -1.07852088884430      0.83347807412865
  H   0.21666960645301      0.99608495225322      1.24832567386589
  H   0.72861067181897     -0.81455038398917     -1.23416991651647
  H   2.85412151645220     -0.60686682915201     -0.30385752221457
  C   -1.53805819300680      0.35686144689359      0.05972647102606
  C   0.94897041586971     -0.37285152203568     -0.25905264309030
