11
Coordinates from ORCA-job orca
  H   0.64730033944777      1.11289033086792     -0.09675585737990
  C   0.50583296151035      0.02299057663093     -0.20243624865351
  H   -1.73731837471175      1.33892736384917      0.10120898466567
  H   -1.93236634230704      0.07938809451227     -1.17598913166735
  H   0.54899400409770     -0.24027529823385     -1.27520718864163
  O   2.74697966028472     -0.21131393676822     -0.07714484792946
  F   -2.87539898810085     -0.24607564398894      0.56112155637814
  H   3.06642308507565     -1.03678855633755     -0.46936930978125
  O   -0.67778828860881     -0.40914626053627      0.39172203915648
  C   -1.80412761208028      0.25532859957088     -0.09429482748008
  O   1.51146955539254     -0.66592426956632      0.51095183133288
