15
Coordinates from ORCA-job orca
  H   -2.29074106025662     -0.42511466715878      1.34004492581059
  H   0.25480021767616     -1.14717010439090     -0.35893646131033
  H   -1.11192609900195      0.74995772448249     -1.26014501391436
  H   0.30906038444813     -0.34831757897707      1.22145582312760
  C   2.56436582574147      0.05471953515297     -0.04352836522230
  H   3.32817153235126      0.74009994499535     -0.41710972669697
  O   1.30978156474668      0.63551574665059     -0.30324463489932
  C   0.22905872794181     -0.16009706828268      0.13602279724681
  H   2.67970635771228     -0.91597337940822     -0.55151356873791
  H   -3.22479810227654      0.28761160653139      0.02192369819501
  C   -2.29968501584887     -0.24424940877115      0.25999102412982
  H   -1.06102348978912      1.53741890232863      0.30895871253837
  C   -1.07319697783774      0.55834891531354     -0.18223460581273
  H   -2.34047683885889     -1.21848832136879     -0.23844631469038
  H   2.72690297325194     -0.10426284709738      1.03437471023610
