15
Coordinates from ORCA-job orca
  H   -0.17578137083018     -0.82238957166300      1.12948835272573
  C   1.25243270274060     -0.43425273713997     -0.45497282473158
  H   1.86742647646339     -1.31443918126156     -0.23395145499134
  H   1.26601525291363      1.69942406812635     -0.04219170677422
  H   -2.40066846509049      0.16176357403143      1.16895596626685
  H   1.22959647591663     -0.32875004963083     -1.54527569275331
  C   -2.33248199805866      0.20009562733970      0.07063476151574
  H   -0.53263283128453     -1.66682777538346     -0.38971592799271
  H   -2.89575978871957      1.06463546671079     -0.28632308104291
  H   -2.79387515910043     -0.71447481949973     -0.33345524420269
  H   1.92993705165354      0.71538961917097      1.26814173212241
  H   2.88170584967691      0.99065508676924     -0.19593285846254
  O   -1.00276395381544      0.34942459556156     -0.36500192065105
  C   -0.16257754803721     -0.71657276011819      0.03032325059684
  C   1.86942830557181      0.81631585698671      0.17927764837476
