12
Coordinates from ORCA-job orca
  C   -1.19418416965211      0.66270528716546      0.49939910107540
  O   1.37897896144095     -0.09379557686951     -0.88253918434978
  O   0.13415040596793      0.46116620576723      1.04305452819872
  C   0.43732747368869     -0.53056037816103      0.05194041813871
  O   2.66003698011028     -0.07772410086152     -0.21364021871892
  H   -1.96518446253959      0.45358396515736      1.24745665145492
  H   -1.33194543788664      1.67776649361580      0.11204796711461
  H   2.61658153170775      0.78062933485886      0.23731036676187
  C   -0.96732473004336     -0.43547283188593     -0.55734905672129
  H   -0.96535013349151     -0.10405924229570     -1.59609341216490
  H   -1.57848540875899     -1.33206416442855     -0.45851390253188
  H   0.77539698945659     -1.46217599206248      0.51692674174254
