12
Coordinates from ORCA-job orca
  H   -1.12766059072362      0.54942828316670      1.32123441675804
  C   -1.57734323206560     -0.08642428131971      0.54501118710680
  O   -0.65464639125652     -0.98084014914036     -0.03234523009041
  H   -2.03511066583666      0.56926373237062     -0.21303651851484
  C   0.37690642039676     -0.35517629694596     -0.77557992465439
  H   0.83239078635540     -1.15550535193830     -1.36761388227143
  C   1.44274163835683      0.31586107099547      0.08916426503307
  H   2.24883892698375      0.70110925117079     -0.54380166832808
  H   1.87105444358427     -0.40184990782217      0.79466872786111
  H   -2.36373044783250     -0.68698508249364      1.00803620009721
  H   1.03936577690741      1.15839160696603      0.65796452818273
  H   -0.05280666486955      0.37272812499051     -1.48370110117982
