17
Coordinates from ORCA-job orca
  H   -1.98986329930899     -0.73956353365521     -1.09075440961619
  N   -1.82611137337113     -0.47974910332673     -0.12579375433671
  C   -1.72836864720933      0.94741343815017      0.01217735931324
  H   2.65580730244430      1.11788608339867      0.19346358967896
  C   2.06177723405530      0.23717112020334      0.44976837006298
  H   2.73311726711990     -0.60492352113944      0.63321199340747
  C   1.13286410461274     -0.10949242166604     -0.70836255529171
  O   0.40353200520141     -1.29671766638468     -0.49993843790149
  C   -0.71782161865292     -1.24485115373989      0.38841258702401
  H   -2.10779217485138      1.29124269977420      0.98358283516963
  O   -0.39495689830468      1.46166994569064      0.05572396592594
  H   1.50597440887147      0.45493714988647      1.36196107829874
  H   -1.01399640946976     -2.29060109982260      0.49297532123364
  H   1.71567396491788     -0.29644884248518     -1.61794510722356
  O   0.31759960616309      0.98336681948312     -1.11357140057735
  H   -0.43946927519491     -0.85268004415147      1.37303709705591
  H   -2.30796619702298      1.42134012978465     -0.78794853222352
