10
Coordinates from ORCA-job orca
  O   2.30296340770362      0.14882463618456      0.10441775667995
  O   0.98833633530489     -0.08166758226266      0.66666273443767
  F   -0.01484109745755      1.67896342461276     -0.35746841078353
  C   0.05275435417459      0.31456222025447     -0.27582463007795
  C   -1.28449644268419     -0.22862334879115      0.21402007100844
  H   -1.55225620798072      0.25808698072311      1.15806773811274
  H   -1.21144667480069     -1.31078194969722      0.36635219297208
  H   0.30960917228865     -0.06400904255531     -1.27230206070269
  H   2.65320288166617     -0.75377821451243      0.12698533201478
  F   -2.24382572821477      0.03842087604387     -0.73091072366148
