9
Coordinates from ORCA-job orca
  H   2.20891339723191      0.38828457281916     -0.15142763163510
  C   0.40178429804337     -0.35170014582469     -0.11906568159008
  C   -0.99079731849780      0.19316860324106      0.14747329419150
  H   -1.23529026259984      0.98428957601992     -0.56656076205196
  O   1.32295113883749      0.72309862920612      0.01654961561367
  H   0.63158717373057     -1.16075250731003      0.59206564652843
  H   -1.05093560785742      0.61240810989095      1.15550189921854
  H   0.44831645723255     -0.78670789807496     -1.12987488949184
  H   -1.73652927612082     -0.60208793996754      0.05533950921685
