13
Coordinates from ORCA-job orca
  O   2.67794760910871     -0.14517281555104     -1.15982983035324
  C   1.70803062875178     -0.84103159695211     -0.96507732876257
  C   0.49163224593730     -0.42614116283745     -0.25385456907037
  C   0.07279975397446      0.79274221260446      0.20234654998783
  N   -1.10428281000854      0.62916839304299      0.91988990447806
  N   -1.67367873460431     -0.63736925311949      0.49574002025799
  N   -0.51280588650657     -1.38126271256019      0.07184987365273
  N   0.72528151914523      2.02428025622035      0.03000201767376
  O   0.12006810353493      2.94500133061898      0.57514286478376
  H   1.65779356465631     -1.89257003703990     -1.32001741107575
  H   -1.74970926260555      1.40637476643354      0.96655290134639
  H   -2.17779441529868     -0.45564012282067     -0.37927093767795
  H   -0.23528231608507     -2.01837925803947      0.81652694475936
