17
Coordinates from ORCA-job orca
  C   -2.99441847377736     -0.11023050738583      0.44808041809377
  C   -1.57111130485938     -0.63577907852352      0.34515505383722
  O   -0.81620014869772      0.39454050760182     -0.28510606833676
  O   0.52136817724647     -0.11257949427538     -0.51520571265993
  C   1.40220882367698      0.59059069161815      0.33718404161834
  C   2.79455164040262      0.31445881845461     -0.21592684114907
  H   3.53931466256269      0.79031778354461      0.42497830779960
  O   1.26458634374948      0.21836441367323      1.68668580616607
  H   -3.02942564886923      0.80152244638096      1.04993736979052
  H   -3.39985252877750      0.11200506392248     -0.54225937743444
  H   -3.63041470730368     -0.86212609443578      0.92331784817404
  H   -1.15263950996583     -0.85255374804087      1.33506604706576
  H   -1.52704221499263     -1.54784828363047     -0.26372916370963
  H   1.15201088597647      1.65537500983535      0.30978986626239
  H   2.98463532540672     -0.76411075786640     -0.23769072832212
  H   2.89110056938147      0.70037572576493     -1.23262800580319
  H   1.57132810884041     -0.69232449663790      1.77619113860743
