9
Coordinates from ORCA-job orca
  C   -0.87319737202483      0.33849618060638     -0.01622593088057
  C   0.33239580485191     -0.57921525108594     -0.13996972503863
  O   1.37200814626539     -0.27229445672128      0.77596448409040
  H   -1.27535213070742      0.31632670165324      0.99972937155608
  H   -0.59212584771287      1.36509932594689     -0.25863362240936
  H   -1.65716297552819      0.02073116763442     -0.71010998222869
  H   0.09266427708293     -1.61153625559629      0.14647633920209
  H   0.73886307624229     -0.59251284102139     -1.15852556830451
  F   1.86190602153078      1.01490442858399      0.36129463401318
