17
Coordinates from ORCA-job orca
  H   -1.91815871782360     -0.44422262032891      1.95064349585233
  C   -1.19022004147898     -0.31077415591216      1.15092548278567
  C   -1.14432025274694     -1.06876546934873     -0.20751294667806
  C   0.06129799467775     -0.08300981646071     -0.22730131741250
  C   1.06535251315281      0.08675205997441     -1.35423937901366
  C   2.07160521984613      1.10279015669063     -1.04953274057669
  N   2.85570382935449      1.91027271923449     -0.78534407574430
  C   -0.90061775384596      0.99459589006561      0.35528373327254
  C   0.34944475139528     -0.51598090654483      1.24081831663333
  H   -0.90335934343781     -2.13519151951992     -0.16899750980029
  H   -1.95455008784630     -0.86395783192781     -0.91343917974244
  H   0.55041170269878      0.37097240977699     -2.27952103928049
  H   1.57618997683309     -0.86312333979235     -1.55135549359193
  H   -1.69279315687451      1.35175742004187     -0.30925216152426
  H   -0.43493896310290      1.81578217400557      0.90585290334367
  H   0.90781578148598      0.19364573762412      1.85643623995386
  H   0.70113554771268     -1.54154190757828      1.38653667152323
