15
Coordinates from ORCA-job orca
  N   -0.97712758297258     -0.33212684441311     -1.80602865964118
  C   -0.55056018477047     -0.55191952760353     -0.54551133452344
  N   -1.17604172347527     -1.09118868694796      0.44368206898432
  N   -2.36082679029295     -1.68456012703876      0.11773874209616
  F   -3.26787952418037     -0.61506478340554     -0.40812691202281
  F   -2.96440509602559     -1.92650803825894      1.33279172722556
  H   4.02133077933848      1.52123356154058     -0.33444931018551
  N   3.52522987485874      1.08443699809609      0.44113954283753
  N   0.83381318778902     -0.26487540483709     -0.34129991964726
  H   -1.97691524632982     -0.36802696224446     -1.94311020309991
  H   -0.43741862539127      0.27999706781763     -2.39693952828237
  C   2.33467326341316      0.87408893509426      0.20665088876266
  O   0.55453132546435      1.64885352081378      0.41724409462548
  N   1.26227148619964      1.08114461593975     -0.81875553897857
  N   1.17932485637492      0.34451367544728      0.97089934184935
