6
Coordinates from ORCA-job orca
  H   1.56917339652448      0.21009855533992      0.14374772784826
  O   0.97102214761947     -0.50201987647366     -0.10097104487301
  C   -0.35523064067341     -0.01101424092496     -0.02154360031187
  H   -1.01686745851006     -0.83424448096007     -0.30159557896994
  H   -0.54061516703717      0.82380180546945     -0.71299996163723
  H   -0.62748127792331      0.31337823754932      0.99336345794379
