13
Coordinates from ORCA-job orca
  H   2.66741286528842      0.04668367206567      1.00220558380288
  C   2.33557673053541     -0.31298466133076      0.02101475100287
  O   1.37199264191474      0.54901749495477     -0.54740022820286
  O   0.25495386164465      0.57190449900984      0.37881416327664
  C   -0.87943497912898      0.11681688145849     -0.34542732246251
  C   -2.05896396437114      0.19123314725190      0.61147477538963
  H   -2.21162188391744      1.21606102539351      0.95926224535924
  H   -2.96762367893323     -0.14100199926128      0.10198999785148
  H   3.17729593549692     -0.29379253836349     -0.67770441859441
  H   1.96145592589620     -1.34030343889492      0.11604642229121
  H   -1.89652817753442     -0.44912080612027      1.48242874346921
  H   -0.71596174311225     -0.91093192669048     -0.69879959402188
  H   -1.03855453377888      0.75641765052703     -1.22329511916150
