12
Coordinates from ORCA-job orca
  H   2.50175789145269      0.89989621210354     -0.07407444845956
  H   -0.85025640629583     -0.39630698655948      1.40882361381939
  C   1.65611426718671      0.22481901909418      0.07604453087105
  H   1.39858535193449      0.22771236618658      1.14509041075035
  H   1.96733891312131     -0.79581098695630     -0.19887341012526
  C   -1.38585852006856     -0.03656128440307      0.52574588902905
  C   -0.54115343563352     -0.14824743942070     -0.74239862564980
  H   -1.67743128004604      1.00301617447489      0.70032096694501
  O   0.60523350762257      0.68469807516009     -0.74160680820889
  H   -2.29519011596343     -0.63769515676966      0.42329350274150
  H   -1.13060135424211      0.17173935197225     -1.60766589352636
  H   -0.24853981906830     -1.19725934488231     -0.91469972818648
