18
Coordinates from ORCA-job orca
  C   -2.88786701008166      0.46029176313411      0.07443920102095
  C   -2.05661102519097     -0.78091317081536     -0.24819185679516
  H   -2.60661871210626     -1.43272671433573     -0.93350334156260
  O   2.26486978242877     -1.16472075297545     -0.80477307985365
  C   1.46991987411928      0.04916059657211     -0.83661258952063
  C   0.17713015636891      0.03549085584380     -0.07220378116170
  O   -0.83417048976025     -0.49116346272988     -0.90487191287398
  O   3.89300051107586      0.52905819322894     -0.79615444240027
  C   2.77940721576512     -0.02130422894106     -0.18167364737994
  H   -3.03156399327706      1.06470370497891     -0.82578419117849
  H   -3.87185106168362      0.16599403304090      0.45293666350883
  H   -2.41257051897683      1.08523633023515      0.83587308507217
  H   -1.86158691239869     -1.35932934157456      0.66934303649325
  H   1.43569482575958      0.52304462265610     -1.81664859313699
  H   0.29530323085248     -0.57868043861175      0.83517103895239
  H   -0.06096511228529      1.06446189566997      0.24620602421635
  H   4.45691953250981      0.92192242859908     -0.12472046286054
  H   2.85155870688082     -0.07052631397527      0.90793684946001
