12
Coordinates from ORCA-job orca
  C   1.58959132984247      0.36109831024343      0.53815776845451
  O   0.81482025043710     -0.80772538250718      0.41242749670349
  C   -0.33662671095377     -0.66149537586904     -0.40177991953484
  H   -1.74776698858113     -0.38571332502207      1.21959016734084
  H   -2.35869956481226      0.10698454511634     -0.37255906685381
  H   -0.06751017301535     -0.17599218730037     -1.35480911581283
  H   -1.20923882217907      1.13578060650393      0.48605382552485
  H   1.05728190604925      1.17536973549055      1.05124315160727
  H   2.47103131421192      0.10123998730208      1.12913590802982
  H   -0.65617538527313     -1.68258569430984     -0.63428014313477
  C   -1.47624671826028      0.09605760281308      0.27571502187576
  H   1.91953956253425      0.73698117753908     -0.44406709420030
