12
Coordinates from ORCA-job orca
  C   -1.43253073970365      0.17011736862288     -0.11780777170075
  H   -1.25825909273351      0.39762788718163     -1.17210265148009
  O   1.36663035950063      0.27347887990418     -1.03222083119394
  C   1.07174464274382      0.10634701243372      0.35028838249292
  C   -0.25988755693279     -0.62291969411662      0.46493044418517
  H   -0.16811403538537     -1.58731256926996     -0.04835177484752
  H   -1.56758572283972      1.11985196443132      0.41173988952751
  H   2.18635548783287      0.76928970657858     -1.11465689187446
  H   1.86089551780228     -0.47331976274447      0.85341943635924
  H   1.00752550850676      1.08205530128014      0.85946763232426
  H   -0.43844682072479     -0.84444429802023      1.52419343178332
  H   -2.36832854806654     -0.39077179628117     -0.03842229557565
