9
Coordinates from ORCA-job orca
  H   1.56762079871884      0.89400225175511      0.63617546409021
  C   -0.89472827019158      0.22370437854011      0.01234005845809
  C   0.44408645011738     -0.48578219998674     -0.15526727820171
  H   -0.94527418805119      0.74607183645049      0.97481943730595
  H   -1.04138302412620      0.96078360356757     -0.78212478968778
  H   0.57839987985467     -1.23623690305079      0.63988497613369
  H   0.47128775638139     -1.02353383225126     -1.10825312126549
  H   -1.72248540843036     -0.49278662207420     -0.01955427684181
  O   1.54247600572704      0.41377848704970     -0.19802146999115
