11
Coordinates from ORCA-job orca
  O   -0.65208056877814     -0.93737018644759     -0.14884672097718
  C   -1.69040890473311     -0.16792891228335      0.35728111918966
  F   -1.82245570860378      1.01478396954877     -0.31947869255010
  O   2.39119491238521      0.80436642433644     -0.16834689909874
  O   1.02795916985765      0.53594966275209     -0.56888367861344
  C   0.62986368493716     -0.56537951029562      0.24157139907489
  H   -1.52611560779807      0.06911929593089      1.41919427309657
  H   -2.60590700451805     -0.75060943333769      0.22078593349839
  H   2.28773055211788      1.68920681096451      0.20988818568851
  H   0.66659119009521     -0.27524774615368      1.30482489608092
  H   1.29362728503802     -1.41689137501477      0.06180218461054
