13
Coordinates from ORCA-job orca
  F   2.63453228644831      0.65519052955107      1.12130835336667
  H   2.60089723170232     -0.39127249073065     -0.58230283336518
  C   2.17230634388353      0.53202571195310     -0.16687148527180
  O   0.78897393523666      0.50991888962425     -0.19890661212385
  C   0.19817412756462     -0.63809269226738      0.27966188487903
  C   -1.12233406186460     -0.78723341565099      0.27370286091720
  C   -2.09340446037646      0.24676137935535     -0.22796230603970
  H   -1.91482418631005      0.48828745157182     -1.28167931782427
  H   2.48625184798975      1.40777285293742     -0.74090638617456
  H   0.88269946324446     -1.38859306198527      0.66381986204084
  H   -2.00070614281386      1.18640128716345      0.32775681470205
  H   -1.50785014835995     -1.72190490660804      0.66544332967611
  H   -3.12471623634474     -0.09926053491414     -0.13306516478255
