12
Coordinates from ORCA-job orca
  C   1.80165438675832      0.15132941232480     -0.02354676700818
  C   0.38609320605258     -0.38771483885418      0.09437826998426
  O   -0.52020230061912      0.65388449482543     -0.20564719800396
  C   -1.86708268653531      0.25475010030623     -0.12363384099542
  H   -2.09784540248113     -0.55467573744774     -0.83380408368422
  H   -2.48336943001108      1.12224200387680     -0.36814116329725
  H   2.52512131232457     -0.63688882480046      0.20330267440204
  H   1.99114588215662      0.51661176965808     -1.03595889588567
  H   1.95803684810410      0.97810736416627      0.67378467691392
  H   0.23498822408986     -1.23402576322194     -0.59705136215454
  H   0.20105596668774     -0.77087233129440      1.11225549139203
  H   -2.12959500652713     -0.09274664953890      0.88784319833698
