14
Coordinates from ORCA-job orca
  N   3.04780080206531     -1.55302220165323      1.65473603750206
  N   2.13642796794156     -0.84803097250556      1.17854854612615
  C   -0.64336594867191     -0.57367244019325     -0.76692072786194
  C   -0.12254600705262      0.03476723260854      0.58328283316373
  N   -0.64254409899183      1.32869599573158      0.11319647134844
  N   -2.13632804510255      1.18389119349099     -1.84974856262793
  C   1.31842307092038     -0.04072818251048      0.88065180251271
  C   -1.30161180078537      0.78410609405455     -0.99044950718313
  H   3.58420952572444     -1.97047358284477      0.88793494585162
  H   0.13751349118192     -0.82991950565344     -1.48242222332784
  H   -0.67385213798471     -0.36002489451791      1.44648483285005
  H   -0.95344613960795      2.09572836299719      0.69260654758501
  H   -1.33837237239186     -1.40644116624909     -0.65635396131812
  H   -2.41230630724481      2.15512306724489     -1.69154803462082
