15
Coordinates from ORCA-job orca
  H   -1.00168190346756     -1.76831067233748      1.55197020578861
  N   -1.43791211679174     -0.94756623887172      1.14338601419844
  C   -0.59047911169857     -0.41140109497898      0.09410857676695
  C   -1.29738757574610      0.76195846406214     -0.58308814864913
  H   -1.54067131156194      1.51986849927253      0.16512434341479
  O   2.86523695136755      0.27028320226078      0.71072776604931
  C   1.73216671482564      0.12162207600566     -0.08163806676792
  O   0.60468794968021     -0.01978646923782      0.75124465924066
  H   -2.33222922594296     -1.23437291122267      0.75928935099958
  H   -0.31870330278013     -1.16174939806958     -0.67644884144017
  H   -0.67020854111141      1.20837870796547     -1.35854094974802
  H   -2.22366413957237      0.42546986033938     -1.06002909897007
  H   2.72402824233445      1.03683841988858      1.27778366881405
  H   1.88777950160962     -0.78314348127903     -0.68817099210071
  H   1.59903686885530      0.98191103620275     -0.76249748759638
