11
Coordinates from ORCA-job orca
  N   3.61305556814460      0.42398827421096      0.53194823736373
  C   2.43868722931779      0.09031421640610      0.31671883834082
  C   1.27614959872739     -0.34669000771176      0.06083836922408
  C   0.07692950658056     -0.83588419760320     -0.21865493099467
  C   -1.15475181218581     -0.10690438318245     -0.00624226029034
  N   -2.27473125564816     -0.66363471108201     -0.30426858260259
  O   -3.40232712170807      0.06792689758729     -0.08365535679611
  H   3.72608649511274      1.36333855461646      0.91682732632866
  H   -0.04150922159132     -1.83820520075165     -0.63054275029601
  H   -1.10149852625767      0.90760072854000      0.40617099576170
  H   -3.15609146049204      0.93814982897026      0.28149511396074
