15
Coordinates from ORCA-job orca
  O   2.58761926658248      0.33201194236958     -1.33970852924822
  C   2.43026207465786     -0.32632325121453     -0.34387580183157
  C   1.05931490492109     -0.55757289262116      0.31188396625802
  O   1.01800295712937     -1.24378244174877      1.30847232863631
  C   -0.14567739006265      0.09725975759552     -0.32880731857719
  C   -1.39737608173627     -0.81814126231958     -0.37074834745503
  O   -2.28660758635225     -0.29774977883760      0.60798250033948
  O   -2.10621978664699      1.13432492694834      0.46715801632495
  C   -0.69622967758539      1.26539662056418      0.54141278629657
  H   3.25934281432165     -0.82826446845578      0.19596221086625
  H   0.12814063488159      0.44945361056446     -1.32361650880735
  H   -1.85261111743407     -0.78782044567000     -1.36757406859454
  H   -1.19231296542349     -1.84983640822802     -0.07681470285205
  H   -0.45490468723603      2.25190980971317      0.13973328234898
  H   -0.35074236001688      1.17913328134019      1.57854118629539
