21
Coordinates from ORCA-job orca
  C   1.28775504193027      1.81101459661373     -0.10286549797512
  C   0.38408832983947      0.65617497891617      0.39674378497422
  C   0.94017659580009     -0.67146939812057     -0.09359345146420
  N   1.98568813190112     -1.31383855601549      0.44577453828631
  N   0.26079264812096     -1.12718408859374     -1.12318414071142
  C   -0.91697767843448     -0.17297076276571     -1.41816136622020
  C   -1.02577722645536      0.63514118632315     -0.17367382527774
  C   -2.09157565326733      0.17596012659191      0.75358089940954
  O   -2.12509595940429     -1.25604306636383      1.14215161278900
  H   1.34447942640604      1.81334053960216     -1.19594585915096
  H   0.82728529453536      2.75288426694207      0.20388012732475
  H   2.31261289988996      1.76880920124726      0.29238740824153
  H   0.39145154687776      0.67302202210128      1.49663701250992
  H   2.49444830813481     -0.88167410361271      1.19733874486993
  H   2.22955404352875     -2.26301107279720      0.20964107980301
  H   0.64094160186018     -1.83507304118436     -1.74408552574271
  H   -1.79935232770027     -0.78366981755277     -1.62702903486956
  H   -0.61915230228627      0.34400294256999     -2.34305712050175
  H   -2.08156495713947      0.77589161840654      1.67671949282919
  H   -3.08207065709933      0.30868415136185      0.30376426852744
  H   -1.35770410703797     -1.40999172366975      1.70297785234882
