20
Coordinates from ORCA-job orca
  C   -2.06905139353825     -0.19921503330049      1.00460483075707
  N   -1.18927067043656     -0.39685224651813     -0.13877848901277
  N   -1.99219503796397     -0.76157794329395     -1.26151704983435
  C   -0.31870263340832      0.74876201378311     -0.39578186073637
  C   0.88778155218244      0.80082507541838      0.56387557984143
  C   1.84620805959827     -0.34444480119435      0.32555708041060
  N   1.86149377559069     -1.47110527889536      0.91706758618818
  C   2.87202259181959     -0.11307849002197     -0.77406949957180
  O   3.70211639718186     -0.90995497541329     -1.12149458849072
  H   -2.76011148620328      0.65347802981199      0.86842688969993
  H   -1.48068669198005     -0.01273162691298      1.90720351688747
  H   -2.66117944312270     -1.10267417848074      1.15235615060219
  H   -2.35613538050454      0.07265878378258     -1.73263281120452
  H   -1.39595451081510     -1.24753502043107     -1.92480161278699
  H   0.04969739661056      0.65671909114355     -1.42319329066787
  H   -0.87146024784581      1.70634753623719     -0.34025183357964
  H   1.40673923503226      1.75422004953941      0.40607146212409
  H   0.55015629312505      0.79114231912954      1.60379969941471
  H   1.11533290179054     -1.51668090513388      1.61702648586140
  H   2.80319929288732      0.89169660075043     -1.25346824590204
