8
Coordinates from ORCA-job orca
  O   3.22385584477324     -0.32600815162292     -0.32087308485630
  C   2.22278376686715      0.20021634494334     -0.28693699048536
  N   -0.25102320471423     -2.20290848777419     -0.03459481506318
  N   -1.35571107450997     -1.97984576704727     -0.07060589377746
  O   -2.51615758845130     -1.74866496968792     -0.10812028009026
  O   -1.05577942967132      1.03290363055118     -0.21217997077647
  N   -0.42934414010621      2.03423468935573     -0.29803043275120
  N   0.16137582581263      2.99007271128203     -0.38034853219977
