15
Coordinates from ORCA-job orca
  N   -2.56167836309727      0.37606195347335     -0.62758593677658
  C   -1.80212312499961      0.15273200478387      0.59848878335663
  C   -0.28966457340039      0.01481869910155      0.42375213928041
  O   -0.08129495690245     -1.13901325609673     -0.37845954108319
  N   1.23394463371507     -1.42323759481100     -0.78404681716510
  C   2.16100245140100     -0.68893304477739     -0.35205476586401
  C   2.97806713826665      0.26023297801399      0.26227122321329
  N   3.60516972424450     -0.58542164014190     -0.47365520486078
  H   -2.27155666773156      1.24583602000866     -1.06598137669210
  H   -2.34478625036682     -0.36112706883920     -1.29202786853813
  H   -1.99303676694415      0.97838400295460      1.29344949494366
  H   -2.17799351658326     -0.75827549903256      1.07676203495837
  H   0.21021431339380     -0.09361211132062      1.39971423181437
  H   0.12117370181043      0.90647754075613     -0.07679657785737
  H   3.21256325719407      1.11507701592727      0.88691918127055
