17
Coordinates from ORCA-job orca
  C   -0.78487758991234     -1.72320456854873      1.43447193111504
  C   -0.86551493020867     -0.31297326740319      0.89429680794171
  O   -0.67008490524710      0.77391442571130      1.71885149624938
  C   -0.05450933810903      1.81482847234911      0.95782037222736
  O   1.01547439426780      1.39009551631283      0.11323646612466
  C   1.07558888807419     -0.90112521848994     -0.41274340714842
  C   2.04237492122261     -1.67187608352396     -1.10351958618891
  N   2.83490273198201     -2.30762940373473     -1.66075460648041
  N   0.75365891922517      0.43119016485078     -0.94417320039674
  O   -1.25311502434167     -2.61180936350538      2.06728421607072
  H   -0.82323593123753      2.33643965948577      0.38332203809600
  H   0.42850021485473      2.48854872864856      1.66505813269478
  C   0.31091270778427     -1.21546210627006      0.63476983588551
  C   -0.66579449437247      0.39287341582584     -1.32975930037818
  F   -0.76836781000006     -0.48758947579998     -2.33025994348796
  F   -1.03322593556650      1.59183388364698     -1.78150981731473
  O   -1.54268581841541      0.01194422044480     -0.30639143500985
