21
Coordinates from ORCA-job orca
  C   1.89186350344970      1.78833223503988      0.00248221395081
  C   1.62390454590088      0.28500430448228      0.13572901595624
  O   1.68387640696441     -0.35859355037206     -1.12717794655436
  C   0.29304589849823     -0.01590537736461      0.89425469796947
  C   -0.87086109913579     -0.39598456272165     -0.00513569407359
  N   -1.06618174796008      0.54800910996332     -1.09970253179242
  C   -2.05187315323093     -1.11705758761963      0.61005528668095
  C   -1.10240205828925     -1.84195266383957     -0.32368023265548
  H   1.96971645868074      2.26548085314216      0.98554251588355
  H   2.82879807328276      1.95157001284333     -0.53693456796537
  H   1.08844321416387      2.28031336076120     -0.55531824501627
  H   2.44549675202248     -0.15243092498852      0.71392754762682
  H   0.01522697741446      0.86005784390366      1.49612881442036
  H   0.44670539951046     -0.83285489046387      1.60610223198351
  H   -1.77946396050795      0.21405713042374     -1.74052157808461
  H   0.91941273717244     -0.02508001283279     -1.62191494482943
  H   -1.39142494756276      1.44361911090669     -0.74317694015456
  H   -2.02672058419592     -1.35900229763081      1.66758760546504
  H   -3.03989039740471     -0.87106370417896      0.23381097293855
  H   -0.41738355438282     -2.57207580751914      0.09068213948507
  H   -1.46028846439021     -2.09444158193463     -1.31718536123428
