8
Coordinates from ORCA-job orca
  C   -0.88303230387701     -0.15541662600706     -1.23380798434011
  N   -1.38211970242229      0.09745717257916     -0.03804864067143
  C   -0.13287080587894      0.11947639229808      0.70659449738223
  N   0.54052965447285     -0.12569633982063     -0.40727117270871
  N   1.71053966235882     -0.28842674472012     -0.88003292858501
  H   -2.34863028342106      0.22050884133722      0.21797368092667
  H   0.11814844185687      0.31763653431446      1.73645470363886
  H   2.37743433691075     -0.18553922998111     -0.10186215564251
