9
Coordinates from ORCA-job orca
  O   2.36104744017894     -0.03068331993297      0.75271335240278
  C   1.40641972217345     -0.10722658658062      0.02713355544813
  C   -0.01101781476362      0.10837106759079      0.50992998749325
  C   -1.03160248193642      0.73596022037376     -0.45960934358685
  O   -1.36668065910242      1.76358578956744     -0.96670244118929
  C   -1.14647184370989     -0.68813239395842     -0.16144016485490
  O   -1.65114771085422     -1.76804020206350     -0.22879931639458
  H   1.50281899526028     -0.35035571117150     -1.04910509045264
  H   -0.06336564724610      0.33652113617502      1.57588046113409
