15
Coordinates from ORCA-job orca
  O   2.55814936277977     -0.43812691013864      0.88775460605379
  C   2.07060981462719      0.66065613334762      0.96588570871574
  C   0.72882219896288      1.06679569476927      0.34266588768378
  O   0.43919249714956      2.25033968536040      0.38727594704721
  C   -0.10390682895113      0.04179277398172     -0.28787757417015
  C   -0.01557493490292     -1.48200828785469     -0.22076599368538
  O   -1.46288230420353     -1.60684849580123     -0.07000947665871
  C   -1.61921018236142     -0.20219778224682     -0.05285189266100
  C   -1.17678345110309      0.43138551227804     -1.30676136654817
  H   2.56639666206490      1.51538584371989      1.47226903746092
  H   0.48784100457455     -1.85895683263044      0.66940562879946
  H   0.35651167458652     -1.99734023098968     -1.11170986681356
  H   -2.27853874984148      0.24462582867106      0.68312713212361
  H   -1.23168578563980     -0.12977024307537     -2.23501126469998
  H   -1.31894197774200      1.50426831060890     -1.37630751264757
