12
Coordinates from ORCA-job orca
  C   -1.89237141019923      0.00765734714190     -0.34410077651598
  C   -0.70178700859709     -0.24382632392891      0.55609213370621
  C   0.64911977280338      0.47237919264912      0.36366883198159
  C   2.00700960258880      0.77744579032850      0.06552634117064
  N   2.66089780038106     -0.28219428278571     -0.37199199799175
  O   1.71817854055918     -1.35718331942119     -0.37709789053095
  C   0.58931766135661     -0.81230025712963      0.06438225911906
  H   -2.54251808476781     -0.87303636231611     -0.36367379979298
  H   -2.47830246774547      0.84745233770542      0.04257660995357
  H   -1.57792078035597      0.23751328013116     -1.36377554592583
  H   -0.98670885570862     -0.48123985339296      1.58622615982400
  H   2.55508522968514      1.70733245101842      0.14216567500243
