22
Coordinates from ORCA-job orca
  C   -1.33783335327082     -1.42664445035526     -0.53557260974002
  C   -0.49418340385166     -0.32954540093510      0.13298846484459
  C   -0.08269790500965     -0.85770685552811      1.53162771270981
  O   -0.64104107354481     -0.51551704777339      2.54458338315030
  O   0.87690347777119     -1.79203018472325      1.54272657053078
  C   -1.22999526343396      1.01112451842362      0.28136535596368
  C   -0.08986173043846      2.03399028167082      0.42385057982892
  N   1.07541787669492      1.41060577372692     -0.24785719658519
  C   0.70859073392706      0.09524243933962     -0.75874909985289
  N   1.86048477461707     -0.83015867784997     -0.73088734288662
  H   -0.75468181818305     -2.33966036021119     -0.68711271876324
  H   -2.20157304474846     -1.68005012735939      0.08510437208616
  H   -1.70432610665948     -1.08542244232185     -1.50929015069995
  H   -1.80955167438649      1.20673902570189     -0.62786205590894
  H   -1.90752558442390      1.00848208839391      1.13465613562971
  H   0.14191583368833      2.20719291661784      1.47997168288422
  H   -0.34149351186443      3.00040311964285     -0.02389503679405
  H   1.47402158185407      2.00340792022916     -0.96410933981165
  H   0.33836104343412      0.11945769672074     -1.79721065766480
  H   1.32573505303445     -1.78487600078944      0.65989008742603
  H   2.63576176506014     -0.35962624219227     -0.27262235065173
  H   2.15757132973381     -1.09540699042813     -1.66159578569510
