15
Coordinates from ORCA-job orca
  N   -2.70791833928294      0.00919383333286      0.31215753474406
  C   -1.29173242244387      0.35898225219035      0.44174590455301
  C   -0.42939974178551     -0.72947513337375     -0.21738844896941
  C   1.02683257001686     -0.41644072260177     -0.14905753274382
  N   1.59718852448671      0.67268870346408     -0.78758581704437
  C   2.84083338457251      0.55496792598462     -0.45118414715297
  O   3.10399386624292     -0.49201085492005      0.33120123387938
  N   1.87618795549098     -1.14283658273743      0.53130266083152
  H   -3.27654956965806      0.64933425614633      0.85714028364322
  H   -3.00770468636731      0.11808815945022     -0.65285222485324
  H   -1.05071763695435      0.40275738606688      1.50931806239630
  H   -1.02243527941297      1.33592700117856      0.01155185062438
  H   -0.71164107668860     -0.81909077261595     -1.27336650604687
  H   -0.61886818627545     -1.69214805494801      0.26108995856680
  H   3.67193163805908      1.19006160338306     -0.72407281242799
