12
Coordinates from ORCA-job orca
  O   -2.31058498831589     -1.70702699989315     -0.46360115945034
  C   -1.52555215281323     -0.83311093844875     -0.22704946112249
  O   -0.15945926333322     -1.09769114885764     -0.29937384170268
  C   0.74452751674576     -0.12461899819906     -0.03340462964993
  C   2.15286992809277     -0.57724058763567     -0.15429762823211
  O   3.09907017994100      0.14454679757603      0.05110123083398
  C   0.35855850363418      1.12702005439487      0.30706077731710
  N   -0.97167458455547      1.47521718274078      0.39856822627546
  C   -1.84386155919122      0.55606759323777      0.14772647842916
  H   2.25800925821099     -1.64013680430767     -0.45065072620930
  H   1.10172007145861      1.88521234214952      0.51506052928328
  H   -2.90362390987427      0.79175950724298      0.20886120422787
