9
Coordinates from ORCA-job orca
  N   -2.07178557323145      0.82264788170157     -0.44202516989860
  N   -1.87659631082861     -0.38554980431742     -0.63575804316707
  C   -0.55279116306077     -0.94436949310550     -0.29854935717192
  O   -0.33713361376646     -2.10346160703792     -0.47225087467330
  N   0.37492548654557      0.03851936835239      0.23106163732033
  N   1.48099683597174     -0.45987696190761      0.50326942191963
  O   2.33890699204506      0.44312551958786      0.99194882766701
  H   -1.22493033419406      1.28469319742280     -0.04951523172205
  H   1.86840968051897      1.30427089930382      1.01763378972597
