17
Coordinates from ORCA-job orca
  C   2.82389779358134      0.28597753939038      1.19129143348413
  C   1.87039649102084      0.88607385099994      0.18825037225743
  C   0.69728086042936      0.41434239237322     -0.10897964704084
  C   -0.49659845361797     -0.05919929588704     -0.41018014517860
  C   -0.68444683192134     -1.05941577965243     -1.53547488080661
  C   -1.63384616106556      0.44608545192140      0.41278744445662
  O   -1.52096655714529      1.25776967410865      1.31313560659590
  C   -3.07309177337100     -0.04511103066710      0.16961182745099
  O   -3.43195285410662     -0.85019194328345     -0.65003643450548
  H   3.03842065692869      1.00307878316457      1.99040020562645
  H   2.41248769280635     -0.61912104533141      1.64064713883160
  H   3.77669172075574      0.03537404836085      0.71267123958908
  H   2.19247962020147      1.79615107377956     -0.31896417936008
  H   -1.36034684870532     -0.67428197428359     -2.30312458826449
  H   0.28077340980552     -1.27792485042775     -1.99582044338219
  H   -1.12096968864423     -1.99318960367185     -1.17306594072831
  H   -3.77020907695195      0.45358070910604      0.87684999097440
