13
Coordinates from ORCA-job orca
  O   -2.33071695842857     -1.04519465782390      0.21033173195223
  C   -2.14250202362613      0.14367590381522      0.20138012752493
  C   -0.93618267033886      0.80434840556062     -0.48017891887817
  O   -0.89141350589745      2.00948860151207     -0.54097620134931
  C   0.15242106967040     -0.13166382222082     -1.00340468126371
  C   1.07765328750885     -0.39449882320072      0.11069464143243
  C   1.56977887512020     -1.01470061952339      1.11162631312587
  N   2.29962518810495      0.26222978498690      0.71880455357868
  H   -2.83852638380824      0.88168410666591      0.65159883603883
  H   0.68000887737628      0.36463140373584     -1.82238066848056
  H   -0.29987806720782     -1.06869346066130     -1.33778633093483
  H   1.68100146709153     -1.81784273770959      1.81609267255426
  H   1.97873184443485      1.00653491486316      1.35209092469933
