19
Coordinates from ORCA-job orca
  C   -3.06907000000000      0.02877300000000     -0.09470500000000
  C   -1.83745600000000     -0.84222600000000      0.12434800000000
  N   -0.61862600000000     -0.03773100000000     -0.01821300000000
  C   0.57093900000000     -0.88880200000000      0.11394100000000
  C   1.83955700000000     -0.08562900000000     -0.17251600000000
  N   2.04836000000000      0.90703800000000      0.85706400000000
  N   3.02655200000000      1.68033900000000      0.82850500000000
  F   3.18436300000000      2.58459600000000      1.79886500000000
  H   -3.11188700000000      0.83300800000000      0.67022200000000
  H   -3.03683100000000      0.48714200000000     -1.10597800000000
  H   -3.98582300000000     -0.59225400000000     -0.01118500000000
  H   -1.84991000000000     -1.65699000000000     -0.63331900000000
  H   -1.88793600000000     -1.29545600000000      1.14022400000000
  H   -0.60510500000000      0.65856400000000      0.76446600000000
  H   0.62824400000000     -1.32550000000000      1.13713300000000
  H   0.52391500000000     -1.72261200000000     -0.62166200000000
  H   1.75227600000000      0.41144100000000     -1.16355800000000
  H   2.70928500000000     -0.77787800000000     -0.19681400000000
  H   3.71915400000000      1.63417700000000      0.06528400000000
