19
Coordinates from ORCA-job orca
  C   4.09611254965033     -0.31331846060298      0.83899250978351
  C   2.96061356050987     -0.48352401761399      1.19618544040137
  O   1.73828107785659     -0.67666570536630      1.60584092473123
  N   0.80517264477350     -1.00439812328922      0.52687918575408
  C   0.56766046459243      0.19906225254422     -0.28625149772652
  N   -0.30728003819676     -0.21613685713303     -1.36024827839113
  C   -1.70407063492276     -0.43524072058909     -1.01722427696715
  N   -2.41260632636561      0.68252748533338     -0.39226873414348
  N   -2.78862630419332      0.74529111732297      0.92790209052667
  N   -2.21554468485151      0.05562932188219      1.78868054815785
  H   5.10568296006288     -0.16172774723417      0.54745689525271
  H   1.29384418302494     -1.69352651647683     -0.04775143453551
  H   1.49283629294103      0.59931537158546     -0.71996089000379
  H   0.13982904005496      0.95607972261118      0.38636919544723
  H   -0.21695339871660      0.40995720723695     -2.14971816105404
  H   -1.77164317890175     -1.30177298646992     -0.35261996035279
  H   -2.22971185398501     -0.68796233598508     -1.94134383603089
  H   -3.09289634066852      1.16757619317746     -0.95695932544487
  H   -1.46070101266469     -0.54486520093321      1.40603860459551
