12
Coordinates from ORCA-job orca
  N   -2.10083430678263      0.26897528200291      0.27793548356165
  C   -1.09029647994582     -0.78748450911918      0.17832369566449
  C   0.30899854184142     -0.28154329651590     -0.01314003349328
  N   1.17840969359268      0.05547174769274      0.89741927762021
  C   2.22011837894766      0.52206900389555      0.13425453940987
  N   2.03108910263759      0.48416175242681     -1.15635370873521
  O   0.74234726159116     -0.05895333997099     -1.26369004531299
  H   -1.86896283107249      0.89789500650192      1.04133772607335
  H   -2.10764223972344      0.82974300825297     -0.56919866018571
  H   -1.10768241466304     -1.38015894274892      1.09563911533536
  H   -1.35003014618713     -1.44594990258538     -0.65463151645099
  H   3.14448343976405      0.89577419016746      0.55148512651324
