11
Coordinates from ORCA-job orca
  C   2.38839525469889      0.82142605915189      1.65986084867769
  N   1.76167461011667     -0.20153448833343      1.22937431976187
  C   0.58558395774171     -0.22288669699914      0.65118176754195
  C   -0.48931838014789     -0.37732102248571      0.10036211094146
  C   -1.72632065984976     -0.55144660443894     -0.58270188783322
  O   -2.79876501669861     -0.78071354734255     -0.05129911271764
  C   -1.68761960023323     -0.42810190448653     -2.11592357891673
  O   -0.70382607445433     -0.17317150049661     -2.75602170456685
  H   1.99494924387576      1.83799217695238      1.59218084097042
  H   3.36748086060781      0.67503332938784      2.10890331630012
  H   -2.69223419565702     -0.59927680090919     -2.55767592015907
