9
Coordinates from ORCA-job orca
  C   1.40762638367548     -0.44802911431003      0.13654260293791
  N   1.82786813512949      0.79183975002605     -0.03444781379648
  O   0.65325093816799      1.58965341243613     -0.21210307666792
  C   -0.34838332776535      0.72271941648322     -0.12742986166920
  C   -0.01132125221368     -0.53430487727831      0.08147021046736
  C   -1.50479825322223     -0.20579960580307     -0.04081152259805
  H   2.15594157636424     -1.21442022599246      0.29021116567241
  H   -2.04678783765367     -0.48888132801386     -0.94655062967027
  H   -2.13339636248228     -0.21277942754768      0.85311892532425
