18
Coordinates from ORCA-job orca
  C   -3.41031280457678      0.12714990221028     -0.44096619598657
  C   -2.40899705814608     -0.06405923187539      0.70291990017026
  N   -1.14749147272780      0.57039154318700      0.37035127735845
  C   -0.10434929304598     -0.15057986924841      0.33738022808801
  C   1.21865751797244      0.46871679418145     -0.01680344743917
  O   1.38393950472969      1.64528961491437     -0.24721412682620
  C   2.42146541873353     -0.50224729581398     -0.07978075150808
  C   3.74854151997953      0.11682656217536     -0.43260167040027
  O   2.25918031134157     -1.68102937577387      0.15032470736719
  H   -3.52179989552646      1.18770836189577     -0.67777401406093
  H   -4.38726115119618     -0.27550020705954     -0.16009797641953
  H   -3.07168240561593     -0.39080914705727     -1.34252601409013
  H   -2.29083007399725     -1.13322915099088      0.94140892210165
  H   -2.79082824732590      0.43985171320350      1.59928393672172
  H   -0.09646226960770     -1.22477597197700      0.55192963928962
  H   3.67702194825297      0.61956233756675     -1.40194983859489
  H   3.99859158113267      0.89620775347563      0.29391997089160
  H   4.52261886962367     -0.64947533301377     -0.45387654666273
