10
Coordinates from ORCA-job orca
  C   2.64403218835473     -0.12596322962407      0.17418906258256
  C   1.36623546671663      0.16769926581686      0.23908438308348
  C   0.13519985624487      0.48036482762584      0.30990208701167
  N   -1.03767765548510      0.85220473915042      0.39798917197194
  C   -2.14941651803278     -0.05709114364708      0.14311552235305
  H   2.99533180436504     -1.12268778948618     -0.08800680140361
  H   3.41716702920147      0.61282956727077      0.38009110809232
  H   -1.83151041819213     -1.07014914982209     -0.12796945510842
  H   -2.77643244390049     -0.09817712759048      1.03903686664705
  H   -2.76292930927224      0.36097004030602     -0.66075094523005
