13
Coordinates from ORCA-job orca
  C   -1.66096873533212     -1.06476083468565     -0.82051152077914
  N   -1.09347656619380     -0.50231961214947      0.16219842580410
  C   -0.14570063993689      0.50877695376063     -0.05007727829069
  C   -0.36787905349977      1.61467071777014     -0.77742731540768
  C   1.13122539457913      0.39373569035232      0.72289237903875
  O   1.94562880276157      1.28991539808106      0.81484378235685
  C   1.52269653040156     -0.93859539832568      1.37724044471119
  O   1.19975527899877     -2.01781412386464      0.95677628580754
  H   -1.40040379800580     -0.85093102836432     -1.86484115982090
  H   -2.44014338435979     -1.80243048063243     -0.63364209174189
  H   0.37981930296527      2.39726573218594     -0.80567733299065
  H   -1.30466809899848      1.76705874713792     -1.29965261223743
  H   2.23411496662035     -0.79457176126583      2.21787899354994
