12
Coordinates from ORCA-job orca
  O   -2.54272260118098     -1.19814598974653      0.29567238288356
  C   -1.34895406071924     -1.19580738385140      0.08865435271076
  C   -0.55855263935059      0.04625559834039      0.10594237421666
  C   -1.04517392184553      1.36106862458657      0.35808325344264
  N   -0.09550244408532      2.26007162644789      0.30284170724095
  O   1.06918150591570      1.55807832465897      0.00726542666091
  C   0.78427090579354      0.25048623844737     -0.10700929149038
  C   1.91093446840713     -0.64558146358319     -0.42002162650313
  O   1.78281693705318     -1.84123002793504     -0.54912537988187
  H   -0.78134096026170     -2.11720649988057     -0.13033608915765
  H   -2.06137200481509      1.65581517302264      0.57579208255826
  H   2.88641581508890     -0.13380422050710     -0.52775819268071
