13
Coordinates from ORCA-job orca
  N   -1.95023081417403     -0.84298622038895      0.18464905595344
  C   -0.76465034567317     -0.19131460274817      0.24382376999235
  C   0.42959372659374     -0.79524014285704      0.50378473225010
  C   1.73910874653594     -0.18070404418770      0.58015137192502
  N   2.06524026881821      1.03684293646169      0.47383197823776
  F   2.68275700364643     -1.13599791091685      0.80398264011463
  O   -2.00727792386877      1.76076287384398     -0.22503062159666
  C   -0.91016176100699      1.27946113896935     -0.03118852169116
  H   -2.04531607370054     -1.80704233381851      0.44700494114047
  H   -2.77263315405517     -0.27379399392640      0.05424188605300
  H   0.44067816838341     -1.86638706612626      0.67930980187343
  H   3.07302788902808      1.15383435152306      0.56842147834748
  H   0.01986526947286      1.86256501417179     -0.03836851259987
