16
Coordinates from ORCA-job orca
  N   2.07450287283754      1.35784518406539      0.41753051698801
  N   2.12382761803943      0.12601953264665     -0.28918947557308
  N   1.35186749190818     -0.91485007704841      0.31026733800025
  C   -0.04981317542661     -0.96307847715182     -0.03531018309708
  N   -0.73347753443054     -0.01924831761453      0.87416333451552
  O   -2.16804064722710     -0.19568054084228      0.75363540079987
  C   -2.71836933344556      0.57006554681678     -0.21371126776776
  O   -2.14384562175392      1.25743124454238     -1.00651802389656
  H   2.64336505654375      1.24210718387111      1.25054567780511
  H   1.11876017010406      1.55012734242203      0.72195642046656
  H   1.75253404900000      0.32890947073006     -1.21662856171192
  H   1.81604094850117     -1.79756652677709      0.13975148680260
  H   -0.42298120462241     -1.99003531913502      0.08656953814945
  H   -0.26121228938425     -0.62867441090690     -1.06136411419354
  H   -0.57355229416830     -0.35072519949085      1.82360546080143
  H   -3.80960510647542      0.42735336387249     -0.15096954808889
