9
Coordinates from ORCA-job orca
  C   -0.89718901375773      0.78104273017818      0.03870291493151
  N   -1.55690979876730      0.01133239516880     -0.75302322478116
  O   -0.85239789108792     -1.28887288137232     -0.85251434893979
  C   0.28591647795913     -1.05124351529944     -0.20732842591460
  C   1.40808966674495     -0.38591868165906     -0.19899115701836
  C   0.29023367018359      0.13886367496461      0.69815806139476
  H   -1.32887298574043      1.75737199731726      0.23151257592442
  H   2.29803469764715     -0.11139983160738     -0.74170061120911
  H   0.35309417681856      0.14882311230934      1.78518421561233
