16
Coordinates from ORCA-job orca
  N   2.74644499119896      0.09669596173623      0.78662801908183
  N   1.78293968822107      0.15087250762823     -0.24919199649885
  N   0.46300435533882      0.15466501296960      0.18924832793258
  C   -0.35421691117704     -0.87957007294435     -0.45667611011129
  C   -1.79285452500104     -0.72477136626464      0.03902058347093
  N   -2.28261118019885      0.64066602156304     -0.05872730328618
  C   -1.42085937495906      1.55383291667555     -0.21806513027462
  O   -0.07244172866753      1.46770948341621     -0.27518081394249
  H   2.88622607473777      1.04888720394829      1.11113862060046
  H   2.37190321990382     -0.43092540464282      1.57503947710594
  H   1.95271754077353     -0.60158408229930     -0.90615275328087
  H   0.06706487275632     -1.84602470310718     -0.16368166197240
  H   -0.30614578210020     -0.79126436157054     -1.55339844134287
  H   -2.45348728666607     -1.37356577976934     -0.54736511032926
  H   -1.86706961439928     -1.05861971233799      1.08050838303228
  H   -1.72061533976122      2.59299637499901     -0.35314409018519
