17
Coordinates from ORCA-job orca
  C   -2.85553367630053      1.01111665782555      0.96163926787303
  N   -2.02504115873488     -0.05536288468557      0.43647461556899
  C   -0.81835556583395      0.20888800385271      0.15883100262089
  C   0.10900400451349     -0.83967382931442     -0.39112706663938
  C   1.29591484670018     -1.14098274744277      0.53270788404776
  N   2.19391651445650      0.02375772391580      0.67155329238615
  C   2.86014248083217      0.46259654786832     -0.40307847272787
  N   3.38961572430451      0.87925909742921     -1.35051949967513
  H   -3.26774992378306      0.70457802874756      1.92889101403650
  H   -2.32785635833249      1.96968766214669      1.08460266211724
  H   -3.70799809677474      1.16181987776783      0.29046444620435
  H   -0.38942210368214      1.21173409604457      0.31282454172317
  H   -0.45825159984212     -1.76022472008093     -0.55004420960505
  H   0.49842839741021     -0.51326630035399     -1.36429441262938
  H   1.84266221440641     -2.01472198334161      0.15758028236169
  H   0.93903779189592     -1.37443261168685      1.53897110594687
  H   2.72148550876453      0.06522538130791      1.53225054639017
