23
Coordinates from ORCA-job orca
  C   -3.60923447002030      0.75579715003904      0.68199362538094
  C   -3.15716296778787     -0.20784659167266     -0.41657469743906
  N   -1.96306057794683     -0.92527480944906      0.00008893625579
  C   -0.92016741731055     -0.82247432555084     -0.70550053528606
  C   0.36305437966844     -1.53486953868494     -0.35436565229802
  N   1.57194511479328     -0.71662733114604     -0.46265912922891
  O   1.36782943568218      0.46631705033593      0.32895095597100
  C   2.38967147297670      0.56014366676389      1.31682097026237
  C   3.75195847536329      0.92276357371838      0.73890235537918
  H   -3.77343551069160      0.21764852595387      1.61912812307457
  H   -4.54111867869257      1.25355982610258      0.39776120237077
  H   -2.84996234275897      1.52251159197481      0.86109154621877
  H   -3.94486059494281     -0.95154004256426     -0.59036737772554
  H   -3.00417130846803      0.33535403674921     -1.36469004888302
  H   -0.88881331888437     -0.21104370885341     -1.62641861990288
  H   0.51157747929606     -2.38041715909890     -1.04116508106975
  H   0.28683830090931     -1.93605791601594      0.65867709092936
  H   1.64092688874748     -0.35495261575139     -1.41337588173056
  H   2.03296215560298      1.34362584166135      1.99396829880857
  H   2.44711352551081     -0.37796086341191      1.88451897383865
  H   4.48423584480857      1.04397906246549      1.54375959066479
  H   4.10720342458640      0.13585696990083      0.06899777111161
  H   3.69667068955844      1.86150760653395      0.17955458329746
