17
Coordinates from ORCA-job orca
  C   -1.65897147127119      1.28530937286788      0.03230505438420
  C   -1.29530850716880     -0.18605632114713     -0.18753169928806
  C   0.14454196408983     -0.40689769005099     -0.64544176246754
  O   0.43137616255774     -1.81499463209204     -0.84129905093109
  C   1.46137736970821     -1.84025276835358      0.17830149212053
  C   1.27191230392011     -0.35995385653984      0.38908804885267
  N   1.92228888803685      0.46554282205534      1.09142656421301
  O   1.56055834564084      1.80376876032262      0.99687328665778
  H   -1.14198445308629      1.70641667475848      0.90031226724347
  H   -2.73187573509986      1.39571549145309      0.21099285972790
  H   -1.41634075095311      1.89566095593618     -0.84602418044466
  H   -1.46618254204980     -0.76439080101612      0.72648603729768
  H   -1.94119822759311     -0.62059003631548     -0.95922602361363
  H   0.34293728230365      0.17059358821800     -1.56199800026749
  H   2.43770620787798     -2.13855156040774     -0.22069093724430
  H   1.19898597204812     -2.49022723934856      1.02180592843212
  H   0.88017919103882      1.89890723965988      0.31020811532742
