14
Coordinates from ORCA-job orca
  C   -0.86615044987260     -0.76611745266723     -0.11538337714714
  C   0.66713842879991     -0.92236335766794     -0.23238564434479
  C   1.36153267909448      0.41347800919448      0.07633067976520
  N   0.73172724147218      1.53842127320724     -0.65688333303236
  N   -0.50109366936210      1.66373860165581     -0.56084503101815
  C   -1.22323018791305      0.67603851940927      0.27744859379199
  H   -1.34749550370739     -0.99838617561596     -1.06914881359248
  H   -1.28479064182380     -1.45367628063480      0.62501444082535
  H   0.94291875551817     -1.23491296996847     -1.24310410721858
  H   1.04606567751724     -1.68917851626492      0.44928912380492
  H   2.41736312990464      0.39889397814718     -0.19830825840005
  H   1.30349160763845      0.63409397215219      1.15153824211488
  H   -0.95752189243428      0.86225192480643      1.32754726740920
  H   -2.28995617483185      0.87771747424674      0.16888921704202
