12
Coordinates from ORCA-job orca
  C   -1.52206287738662     -0.31060832976943      0.26459973097749
  N   -0.13968883585877      0.03226652296136     -0.03109003134683
  N   0.07465186741528      1.11186898663213     -0.90294407063840
  C   0.91133101492294     -0.65459847056462      0.52200054359955
  N   2.16822069272631     -0.47747629696914      0.37303674893983
  H   -2.15556551546962      0.38095730268228     -0.28820270319027
  H   -1.74778139693953     -0.21201988516417      1.33335855127386
  H   -1.76500133618807     -1.33309033621747     -0.04878384750245
  H   0.61493034171402      0.79631822643407     -1.70765064255553
  H   0.62948537635849      1.82497563536045     -0.43099428125019
  H   0.57045306745604     -1.46044342778662      1.17740580360384
  H   2.36102660124953      0.30185107240116     -0.26073680191090
