20
Coordinates from ORCA-job orca
  C   3.26532353669645     -1.76020092918768     -0.52762221471428
  C   1.89001773240747     -1.18741107159435     -0.19965790128228
  N   1.65898691149433      0.04953528130860     -0.94207903781676
  C   0.56625044970930      0.67181149983217     -0.79016218639692
  C   -0.59401101905747      0.28656345122865      0.10357134719251
  C   -1.74796599659701      1.27809498181965      0.00318515462580
  N   -2.84334394026064      0.86395560588804      0.87958871999778
  C   -3.97879180403708      1.54464769448876      0.97480946965419
  N   -4.96747821143142      2.15384373811244      1.04564250510141
  H   3.44240221009037     -2.68925051230750      0.02278754733636
  H   4.05043230147234     -1.04620496549871     -0.26485231780277
  H   3.34759724786121     -1.96919093187731     -1.59753522644476
  H   1.10968965873181     -1.92546428271227     -0.44031654888597
  H   1.80919592630954     -1.00218603687059      0.88229191433445
  H   0.44051484642206      1.59348959817236     -1.36820198475787
  H   -0.94224972880901     -0.72040315654924     -0.16547023370824
  H   -0.24642377035498      0.22138288339998      1.14407243237022
  H   -2.10444140522002      1.33555112118373     -1.03243883104134
  H   -1.40696650997057      2.28107004107214      0.28704790685707
  H   -2.74873643545665      0.02036499009111      1.42025748538141
