10
Coordinates from ORCA-job orca
  C   0.33087082016208     -0.79636867060785      0.18502029108846
  C   1.31241626362021      0.10112819656682      0.23666850394694
  O   1.16488354395217      1.42495166460050      0.01026230166454
  N   -0.24309892096556      1.89927985796485     -0.35129686687294
  N   -1.14182866440363      1.10273490453650     -0.40123777672135
  C   -1.05354451900083     -0.35532552951509     -0.14248875050908
  H   0.53179223370442     -1.84184764705607      0.37755028231664
  H   2.34439464027439     -0.14787977864833      0.46771694693381
  H   -1.77934141797585     -0.55221442959591      0.65746982485073
  H   -1.46654397936739     -0.83445856824543     -1.03966475669774
