19
Coordinates from ORCA-job orca
  C   -3.48666051798946     -0.25171850171251     -0.61138869532760
  C   -1.98473522000209     -0.34968225735893     -0.36169273130590
  N   -1.54472339421530      0.72311258659366      0.52899574650810
  C   -0.30707547750292      0.86477927070233      0.76462282110897
  C   0.83872830512936      0.03401755737939      0.23380970479204
  N   2.04728871815816      0.32703068712014      1.00632176198856
  O   3.11673084443374     -0.49270177329637      0.51877523634538
  N   3.79666333576268      0.27366187628194     -0.48338590353001
  H   -3.82716098745547     -1.05915505517942     -1.26715025784341
  H   -3.73587777355348      0.70405153270781     -1.08070176904497
  H   -4.03601119174014     -0.31379126541918      0.33201243623529
  H   -1.44316589774114     -0.31039268848785     -1.31850447367160
  H   -1.74440695939741     -1.32657365081756      0.08466975173713
  H   -0.01077167061579      1.68953470581091      1.42027776976607
  H   1.04792930978071      0.32606695934823     -0.80391624571266
  H   0.58210027085392     -1.03610714029024      0.22312790750486
  H   1.94386878730844     -0.02719969565443      1.95592675859666
  H   4.11725036864772     -0.44835744378977     -1.12658541170858
  H   4.63003015013847      0.63357129606185     -0.01521340643831
