15
Coordinates from ORCA-job orca
  O   2.55212530211701      1.64319090756507     -0.94797859795353
  N   3.18737772955757      0.64803415194183     -0.92856167663052
  O   2.71432285629229     -0.34816605621810     -0.05755736930659
  C   1.54342327424135     -0.03534852642824      0.71572075298841
  C   0.27523800019090     -0.37294478891654     -0.05969765714532
  O   -0.80535938522229     -0.14405282364467      0.82478720631795
  C   -2.05618995380222     -0.40986508194040      0.23566358897664
  S   -3.40123468025174     -0.13416480949400      1.41790708313894
  H   1.61906106534549     -0.65642642063671      1.60946588531409
  H   1.54714781058221      1.01931313889157      1.00089769295849
  H   0.19385774934772      0.25877499589688     -0.95650926668704
  H   0.30629429705509     -1.42321569960716     -0.38823592580442
  H   -2.21115463731100      0.21052592336640     -0.65678802939102
  H   -2.14429672591379     -1.46465231787628     -0.06258830994129
  H   -3.32061170222859      1.20899540710036      1.43417762316520
