18
Coordinates from ORCA-job orca
  N   2.85328247035293      1.17223886486397     -1.40977551874704
  C   2.61127483249146      0.11868514004624     -0.99889676746747
  C   2.28408265566666     -1.21725000202251     -0.48633474455094
  N   0.96151497966610     -1.68118706185095     -0.92777990595768
  C   -0.06744210993005     -1.16389687182638     -0.38694799068067
  C   -0.13872438919748     -0.10513859848876      0.68732636135593
  C   -1.57300651856588      0.30630454254061      1.01353503256653
  N   -2.20076306247524      0.91595813005870     -0.15856226306359
  O   -1.65202155305892      2.24044899796020     -0.29585292146074
  H   3.03647813488284     -1.91687194027164     -0.86229974778694
  H   2.38302995252015     -1.19141650516039      0.60815556694676
  H   -1.02886254580090     -1.53464910637080     -0.75180665716876
  H   0.41588462054460      0.78565570798527      0.37059195984208
  H   0.36128575531393     -0.46927310296062      1.59515235317414
  H   -2.17907909727787     -0.57216738224482      1.26925933296339
  H   -1.57698202915165      0.98289830375570      1.88000547509503
  H   -3.18212055214559      1.08747239244427      0.05067653500287
  H   -1.30783054383509      2.24218949154190     -1.19644510006291
