13
Coordinates from ORCA-job orca
  N   -1.21806736729909     -0.40104714776430      0.06263553563601
  C   -1.66192385026251      0.96391496952690     -0.21080717860426
  C   -0.03208544809591     -0.76766092477497     -0.64268663010746
  N   0.81598619593398     -1.89013066836621     -0.02995713478266
  C   1.25755026440115     -0.71172145530573      0.01894951858496
  C   2.43787839965007      0.02962891271162      0.53559684845966
  O   3.38132749722396     -0.51744662326860      1.04535469788835
  H   -1.96075937147081     -1.06182985321574     -0.14343207136183
  H   -2.59132259653287      1.15673858009316      0.33061191325791
  H   -0.91011784071112      1.67138864018636      0.15385320397301
  H   -1.83492469303373      1.18042261782482     -1.27854633552672
  H   -0.06269176411349     -0.78095038788500     -1.73678320261166
  H   2.37914957431038      1.12869434023768      0.41186383519469
