18
Coordinates from ORCA-job orca
  C   -3.53666994582234     -0.56487789419724      0.07805640928121
  N   -2.12128363840089     -0.23586328343108     -0.01587909870111
  C   -1.30998113342002     -0.94381643815343      0.65924760014633
  N   0.03845628870566     -0.71253636224363      0.64181790162073
  C   0.60081115315406      0.36307879569990     -0.14657204533226
  C   2.10510258011848      0.39869583595387      0.04625641734270
  O   2.59776007121261      1.49784496218969     -0.77221098827863
  C   3.87051588214055      1.69848625025050     -0.73542654510098
  N   5.01261938454105      1.90771370119251     -0.72606913953838
  H   -3.92360085834093     -0.46094172213096      1.10133929923758
  H   -4.10936584840319      0.11501373664860     -0.55727614485281
  H   -3.75303292270641     -1.58847468371624     -0.25839957246254
  H   -1.59353730297727     -1.78703233060879      1.30548895548148
  H   0.63439139920961     -1.29951621969770      1.19795671993052
  H   0.16274270114366      1.32352305216398      0.14951621819724
  H   0.36206945240069      0.22599080975837     -1.20785895019068
  H   2.58355079354763     -0.52747312544489     -0.28913694738301
  H   2.37945294389706      0.59018591576654      1.08889091060260
