24
Coordinates from ORCA-job orca
  C   5.31910079189868      0.56614350446808     -0.04843470727911
  C   4.06307488387020      0.52420046055197      0.39792556797498
  N   3.14263612313567     -0.41253658568019     -0.08417007534705
  C   1.96126170710817     -0.38739297661726      0.39708554147393
  C   0.90820221118606     -1.35186631989736     -0.06188253870468
  C   -0.40625072293867     -0.66380020022636     -0.46342545599621
  N   -0.99763843647531     -0.03592143499227      0.72226870394727
  O   -2.09720244485511      0.80219931023809      0.39150248111345
  C   -3.27583442222580      0.09306680968417      0.01310207984879
  C   -4.38639393173830      1.11787744611701     -0.13976031470360
  H   5.66008267382023     -0.13346409487457     -0.80307694529482
  H   6.02507462791665      1.29547098945425      0.32929700258933
  H   3.71852882115442      1.23023231390824      1.16072095327406
  H   1.65551574366616      0.34164951014733      1.16058420126966
  H   0.69722772815034     -2.06622240646447      0.74833511673751
  H   1.30164268742432     -1.92838900920585     -0.90292935590748
  H   -0.21451284902887      0.13924484540570     -1.18126943033775
  H   -1.06053703281112     -1.40068558495540     -0.95317197295685
  H   -1.36149355056285     -0.75387422500516      1.35244217096882
  H   -3.12647049628856     -0.45634635034298     -0.92692131382721
  H   -3.52919303525810     -0.64442314651307      0.79306441745265
  H   -5.31930846122463      0.62410158812492     -0.42661651673995
  H   -4.54772880368624      1.65250596042589      0.79975810094163
  H   -4.12978381223735      1.84823259624929     -0.91148271049737
