18
Coordinates from ORCA-job orca
  C   -2.72954562187813      0.47359613602143      0.47759057515330
  C   -1.94644283985388     -0.81732957176977      0.21616154931359
  C   -0.43804364405321     -0.67278824814561      0.41589674120766
  N   0.12589631100070      0.21985024131226     -0.58896149137837
  N   1.44649246602616      0.48026378408974     -0.66642354620985
  N   2.09783965729105      0.12953612093337      0.34378083837537
  C   3.50429503949219      0.49622159921316      0.22939109747741
  H   -2.39544005620923      1.28347387157442     -0.17690789202445
  H   -3.80061820486917      0.32574645060607      0.31256663367031
  H   -2.59257364653517      0.80920491700150      1.51051564316392
  H   -2.29998976358982     -1.60774174516951      0.88696329365423
  H   -2.14520382635897     -1.17936904617039     -0.80208887758835
  H   0.06365752550151     -1.65086371218732      0.37772127989860
  H   -0.21465605418121     -0.25625092119400      1.40298095996740
  H   -0.29392327020651      0.21877620237449     -1.50659697008230
  H   4.11715596262741     -0.40352156554763      0.35053498030782
  H   3.76474772486472      1.17460059177450      1.04976439414472
  H   3.73635224093157      0.97659389528330     -0.72779820905099
