12
Coordinates from ORCA-job orca
  C   -0.06990482534532     -1.58920058005155      0.05850263882333
  C   -0.49911039658122     -0.32272080740907      0.02967731893172
  N   -1.83393726250278     -0.00609554133749      0.24416381863417
  C   -2.45030491627422      1.03829193162354      0.26842307504865
  O   -3.16194031717855      1.96290699188396      0.31985878155854
  O   0.24153218140348      0.79229045822485     -0.19798741352545
  C   1.62955323549580      0.61089210617127     -0.43338021052973
  H   0.96299884102558     -1.85242309524578     -0.10574224184703
  H   -0.77965489343241     -2.37903961485366      0.25293854269457
  H   1.80085636631617     -0.00740165135821     -1.32200199816750
  H   2.11839750976236      0.14561389896421      0.43039898233844
  H   2.04151547731110      1.60688590338794     -0.59482429395972
