8
Coordinates from ORCA-job orca
  N   1.40226854712848      0.04945242539201     -0.49452710103249
  C   0.07074957331476     -0.04543659973935     -0.59391398762141
  N   -0.85835271847504     -0.24060853809938     -1.42890029068648
  C   -1.20455614002147     -0.00890560241313      0.06272024764170
  H   1.98529145084086     -0.05397908622921     -1.30869911994219
  H   1.83829851283664      0.22460164856354      0.39189717304002
  H   -1.56403839640628     -0.86661784033709      0.63213904299832
  H   -1.66966082921796      0.94149459286260      0.32642603560253
