14
Coordinates from ORCA-job orca
  C   2.42042210943982      0.19042781870433     -0.51640114778818
  N   1.05194832543755     -0.18842938180368     -0.23136006693324
  C   0.57400240176306      0.09440489897621      0.90262769302568
  O   -0.67425645545025     -0.21591041840435      1.29295763151188
  N   -1.45440918740659     -0.93135496270933      0.29865106952374
  C   -2.44891166194660      0.01118621443887     -0.20773283225047
  H   2.92059537456458      0.70121085565455      0.32042548072318
  H   2.44657279513654      0.85389173667566     -1.38752040577975
  H   3.00462461146313     -0.69935997453341     -0.77418017843736
  H   1.09704210760820      0.60032081071888      1.72170157086094
  H   -0.76902493674632     -1.11113444949695     -0.43988924069860
  H   -3.13612353397210      0.28125265287360      0.59720236965471
  H   -2.01694328583294      0.92639381205164     -0.63555407816263
  H   -3.01553766405808     -0.51289861314605     -0.98340286524990
