14
Coordinates from ORCA-job orca
  O   3.69307438056717      0.77678916245968      0.37387736432722
  N   3.11494855794929      0.96319523848304     -0.64020068064109
  O   1.82641998929483      0.42020163297697     -0.68414758027254
  C   1.40242000280844     -0.27215625401589      0.50039236881261
  C   0.03257989442584     -0.85431481164940      0.22635284514939
  O   -0.87175767988744      0.24408250630893      0.20384065640574
  O   -2.16129751751244     -0.35075449690044     -0.07354360677503
  C   -3.14347992112672      0.55073359568670     -0.05552612976281
  S   -3.11342974657259      2.14030451759189      0.23292315579005
  H   1.38141251660573      0.41488595776246      1.35224134075879
  H   2.10405662847652     -1.08063091892998      0.73270634445068
  H   -0.23436527207136     -1.54997178899353      1.03176277662193
  H   0.01864327873105     -1.38547526721867     -0.73176501452994
  H   -4.04922511168831     -0.01688707356175     -0.28667584033501
