17
Coordinates from ORCA-job orca
  C   3.00249900565050      0.34491318394327      0.18219604343858
  C   2.03910061178236      0.12606697665573     -0.98568155916613
  N   0.83986910376669     -0.56070884003467     -0.53140160725365
  C   -0.27825953878362     -0.00439554737147     -0.72676125905233
  C   -1.57026444804861     -0.65865808382529     -0.32899841433362
  O   -2.39208989397189      0.35032056353421      0.24050255917338
  N   -3.70737895557822     -0.19147101136579      0.45077696920299
  H   3.93316824200382      0.80143116176696     -0.16727055641725
  H   3.24135127761294     -0.60556569981942      0.66599070073782
  H   2.55865653034276      1.00484713374610      0.93328355050761
  H   2.51959654622296     -0.51614091421081     -1.73415013355126
  H   1.80579809599923      1.08575398311493     -1.47654947090514
  H   -0.38272419497026      0.97802547565651     -1.21680963960144
  H   -2.05931404329714     -1.08020691006614     -1.22115369310027
  H   -1.38168989829274     -1.48028237445943      0.37187711768441
  H   -3.84876958101950     -0.10198736991214      1.45724345503852
  H   -4.31954985941928      0.50806027264744      0.03171993759780
