22
Coordinates from ORCA-job orca
  C   -1.77230373175285      2.77549463540795     -0.00420967066905
  C   -1.22510356210546      1.75478593859014     -0.60044844559289
  C   -0.70484690247041      0.72686228924202     -1.20828473019848
  C   -0.39743458298720     -0.62236584512938     -0.58748706389932
  C   -0.95992402935232     -0.80504763697064      0.82883962173143
  N   -2.42355730701812     -0.87095253662133      0.81142916665670
  C   1.10839570519987     -0.90593851419292     -0.62291587881333
  O   1.77005413357665     -0.02198161266216      0.25509803416253
  C   3.16440929066211     -0.20710063500659      0.27923868614138
  H   -1.17379965495417      3.52817893602371      0.50152976190121
  H   -2.85053625808102      2.90814888949868      0.01134214724638
  H   -0.44137318524535      0.83285875629057     -2.26111307326668
  H   -0.85373747499086     -1.38926320120441     -1.23311787554589
  H   -0.48364933818581     -1.69472212276364      1.27491231076753
  H   -0.66067812292303      0.04935567514703      1.44117660218005
  H   -2.78790987840959     -0.80472318143097      1.75593691656145
  H   -2.73105130100237     -1.76914691047502      0.44983963048353
  H   1.29501121613797     -1.95221652021814     -0.32368819120064
  H   1.49392131409615     -0.78893451486436     -1.64996135860760
  H   3.58097839154002      0.52024889678205      0.97913037989096
  H   3.61500595765667     -0.04355736319066     -0.71238346110465
  H   3.43813032060913     -1.21998142225194      0.61513649117540
