24
Coordinates from ORCA-job orca
  C   -4.37498199356285      0.50268125122734      0.53506067571183
  C   -3.18698841477366     -0.39613951497660      0.88463790755150
  N   -2.24642949656568     -0.45358332401642     -0.22155347911226
  C   -1.05263780271450     -0.09117293088755     -0.01346357926695
  C   -0.01420433389506     -0.09292358268929     -1.11139716593238
  C   1.37641711029944      0.31001222436575     -0.62243158652445
  N   1.84784586766004     -0.67509875263316      0.35263400413163
  N   3.08159705286333     -0.42424646978642      1.00866205053455
  C   4.18953593165626      0.04918971128409      0.18194173981220
  H   -4.05025565151828      1.53762466753372      0.39096896916460
  H   -5.12062035555941      0.48671816148789      1.33561967720088
  H   -4.84954870437891      0.16578695417230     -0.39022251621211
  H   -3.55086015681252     -1.41579685953621      1.06336067199618
  H   -2.70863299816668     -0.05151882716394      1.81757758320014
  H   -0.70918417768105      0.24336210668671      0.97922366565562
  H   0.02280499456347     -1.09044528875820     -1.56695120064054
  H   -0.33698512955158      0.58455019010380     -1.91003129705800
  H   2.04370050458689      0.44286644054717     -1.48863485347565
  H   1.32382436898042      1.28098453752640     -0.11172356623417
  H   1.90577267773495     -1.59631867222295     -0.07055940717588
  H   2.89570238469901      0.22164670320839      1.76762104724152
  H   5.06484307855073      0.17334310050314      0.82633903413380
  H   4.43231354070213     -0.71286257132337     -0.56646192376301
  H   4.01697370288350      1.00133774534741     -0.34348645093907
