21
Coordinates from ORCA-job orca
  C   -3.50794778585709      1.17508903535380     -0.71719188276113
  C   -2.30675818401507      0.98094505496968      0.21028465822140
  C   -1.48544940444079     -0.25696143716209     -0.15529899357916
  N   -0.39624052441225     -0.45415948401598      0.80899089806646
  C   0.77850845167404     -0.52292111305826      0.46952148004941
  C   2.06073620717062     -0.61132238380723      0.19884980707217
  C   2.93856955810652      0.61786599151775      0.16409935249204
  C   2.70759457640199     -1.94855189844506     -0.07799244892353
  H   -4.07807472482512      2.06666617448327     -0.44169840990554
  H   -3.19376523098452      1.29189061676061     -1.75985324521327
  H   -4.18883142077984      0.31842476217572     -0.67099960958247
  H   -2.63893332018892      0.88543690884517      1.24963316977918
  H   -1.65547462686126      1.86197651705744      0.17299920896359
  H   -2.12602789382572     -1.14531061332067     -0.10384768639737
  H   -1.10520853747381     -0.17832146227390     -1.18356261631168
  H   3.41257512413237      0.73369884082525     -0.81895555022247
  H   3.74748679394301      0.54127628439343      0.90186531806492
  H   2.37438722304687      1.52819078233539      0.37688307625857
  H   3.17049368689038     -1.96237712187552     -1.07293696801311
  H   1.98796970335651     -2.76821159310047     -0.02828148666277
  H   3.50439032894208     -2.15332186165834      0.64856492860477
