15
Coordinates from ORCA-job orca
  C   -2.53788668889687     -0.81641735840050     -0.49393054481326
  N   -1.18336014680555     -0.30152925048889     -0.53054941123282
  C   -0.45622175202623     -0.43781402220306      0.49521292566223
  C   0.95825875203482      0.06694508192484      0.55143672895286
  C   1.40004275828754      0.74991081928264     -0.75224020687777
  C   2.76952003173129      1.24968240053700     -0.67464632552898
  N   3.85654971790225      1.63696616171418     -0.60272749954939
  H   -2.66742331600710     -1.54548157852799     -1.30048808659803
  H   -2.80589963948763     -1.29187059592973      0.46217619410045
  H   -3.23818100470180      0.00192473918259     -0.69112336376915
  H   -0.81958638625314     -0.93429642692808      1.40999256999266
  H   1.62699765250059     -0.76947937672996      0.79067099083392
  H   1.05274820647354      0.76236473651709      1.39520108845707
  H   1.31866673870035      0.05051981405916     -1.58931884730877
  H   0.72577607654797      1.57857585599071     -0.98678521232101
