18
Coordinates from ORCA-job orca
  C   3.72067459685844      0.04065598983517     -0.24284497731420
  C   2.39312887524331     -0.08461266936977     -0.94729725033914
  C   1.28316417028523     -0.48298291992920     -0.37277381851930
  N   0.27471975367534     -0.94825905168634      0.13699063099893
  C   -0.74399453553623     -0.11985051691469      0.79200901373228
  C   -2.10400435481653     -0.31352255208485      0.11745221557537
  C   -3.21938039397021      0.45033322282855      0.83343583669715
  H   4.09911534997788      1.06856224827190     -0.28198393312524
  H   4.47767182915783     -0.60055395363720     -0.70903160377349
  H   3.64072590723184     -0.24773012797555      0.80748699265712
  H   2.33658799056388      0.17383144599697     -2.00135632052650
  H   -0.46211409099472      0.94192559768239      0.79391606008109
  H   -0.80442544172034     -0.45394433196520      1.83419004426879
  H   -2.32973145456721     -1.38468697163410      0.08943258764712
  H   -2.03105612145640      0.01626117300438     -0.92531451652044
  H   -4.18105202443217      0.30114042563839      0.33459728965526
  H   -3.02090999378044      1.52712043734393      0.85251404268410
  H   -3.32912006171951      0.11631155459522      1.87062670612111
