16
Coordinates from ORCA-job orca
  O   -2.43813307010411     -0.70197096410769     -1.88137394248098
  N   -2.85159017285137      0.10642091805129     -1.12422580860490
  O   -2.38978871634071     -0.01667053452538      0.19413364423244
  C   -1.49849165504754     -1.11215453394963      0.47002312546863
  C   -0.04741036117905     -0.75756446722632      0.20026392179895
  O   0.36290845876817      0.19401845901501      1.16569638753254
  C   1.66917951687056      0.68328902553505      0.96059571936530
  C   1.75632402810777      1.66819995218120     -0.17971341014521
  S   3.07491910062570      1.97354677976540     -1.06358406969127
  H   -1.64354408585931     -1.31570203175480      1.53273522128086
  H   -1.78788904472466     -1.98615731193008     -0.11952053613001
  H   0.06660063645281     -0.36837756930447     -0.82057581085122
  H   0.56231273904944     -1.67271284217252      0.27574457904276
  H   2.40155598523638     -0.12479889462574      0.82174687808314
  H   1.94190417556835      1.21927217341666      1.87976031665732
  H   0.82114246542758      2.21136184163201     -0.35063221555835
