15
Coordinates from ORCA-job orca
  C   3.30277406318374      0.38654628881386     -0.20207436303294
  C   2.03037638673751     -0.05273605840644     -0.34384962890299
  N   0.96032104326526      0.65054256290534      0.16553499152847
  C   -0.05664767806680     -0.10629318679589     -0.20863648903903
  C   -1.47855958776258      0.22442050661025      0.14466335940605
  C   -1.74572404442729     -0.03899627612203      1.64203473269380
  O   -1.75777297687196     -1.14897412730721      2.09671044380285
  C   0.42189112533870     -1.25831954558155     -0.92553194851153
  N   1.73727035246037     -1.22276966776221     -1.01736115188910
  O   4.38046763555458      0.75755504456161     -0.08193478243143
  H   -2.16890229496007     -0.40428012274252     -0.43126878277423
  O   -1.80667396163341      1.58960344056479     -0.02623072701348
  H   -1.91118967209362      0.86957996075248      2.25437756489362
  H   -0.15962882217737     -2.06331565314643     -1.35634185083047
  F   -1.74800256854706      1.81743483365595     -1.43669236789961
