16
Coordinates from ORCA-job orca
  C   2.56236485911476     -0.09241989794167     -0.78583177706925
  C   1.65824004796801      0.65274989170303      0.19710268852241
  N   0.45992209060377     -0.12450799329786      0.47409883208882
  C   -0.66552738677863      0.40834477859670      0.25045788113416
  C   -1.95031314929302     -0.32689708466505      0.52292725887787
  N   -2.70981337372022     -0.38562149983636     -0.72965004098159
  F   -3.95930472545713     -0.98448737104805     -0.38559332982911
  H   3.49148964034927      0.46205553463825     -0.94607523240257
  H   2.81042813025217     -1.08529784798900     -0.40229177829894
  H   2.06752026193979     -0.21622429065092     -1.75363312443243
  H   2.18972851579202      0.78023226185709      1.14816243050003
  H   1.42040964362258      1.65965360752848     -0.18396923464443
  H   -0.77198606378615      1.42598793611093     -0.15616252478927
  H   -1.73943237007729     -1.30867405656923      0.96085030263615
  H   -2.56295583761849      0.25165390536442      1.22355159391737
  H   -2.30077228291143     -1.11655087380076     -1.31408594522921
