12
Coordinates from ORCA-job orca
  C   1.71377383139000     -0.40350554961527     -0.30279830812093
  C   0.59088599772113      0.17476106713980      0.56288099240297
  C   -0.73962962194930      0.07726470907454     -0.07583494852490
  N   -1.27969514044646     -0.33477310843070     -1.13209266136106
  C   -2.16995027268413      0.30827606195122     -0.04610734002480
  H   2.67771625439927     -0.31293189836178      0.20408279568290
  H   1.53517427805595     -1.46015237130694     -0.51680318467229
  H   1.77709059114844      0.12133492337295     -1.25923456210661
  H   0.77492492695342      1.23045514774614      0.80169930166848
  H   0.53690539664660     -0.33067927510243      1.53596023492441
  H   -2.58342414832572      1.28971422888506     -0.27154962164141
  H   -2.83377309290920     -0.35976293535260      0.49979730177323
