16
Coordinates from ORCA-job orca
  C   -2.09151441898610      0.36285632539495      1.01997403885583
  C   -1.59766475062798      0.27414276143074     -0.42672706039319
  C   -0.18475655574867      0.85045733335276     -0.65335434415583
  C   0.88842208056885      0.10152049239677      0.07366322467097
  N   1.80358187525230     -0.46855246461295     -0.59840768145473
  O   2.71804006948730     -1.12845633932142      0.34679237623193
  C   3.68393500037658     -1.72089896055174     -0.27373374724210
  N   4.57719921256567     -2.28102134041525     -0.75879791791328
  H   -3.12094218169604      0.00363687874769      1.10092092747516
  H   -1.48450271045733     -0.24178004744557      1.70086088356128
  H   -2.07158794479043      1.39567271262535      1.38374951819460
  H   -1.61720892235899     -0.76637140359143     -0.76907812778109
  H   -2.28268395859779      0.82504298548988     -1.07973171748926
  H   0.05783375028063      0.85537075722327     -1.71909119084218
  H   -0.15887734130896      1.89245509206057     -0.30673223296143
  H   0.88072879604097      0.04592521721637      1.16275805124331
