20
Coordinates from ORCA-job orca
  C   3.44387847776148      0.84326822215489     -0.19017087409896
  N   2.29274008353870     -0.02260097690940      0.01982619422885
  N   1.37232647714427      0.49075089555333      0.88544406318669
  C   0.17990131087860      0.02792850415351      0.87705783079747
  C   -0.34082441235813     -1.05797025303042     -0.03294339543734
  C   -1.83458064389180     -1.34469134304222      0.12039011280178
  N   -2.66750788998250     -0.43298711814496     -0.66919711063244
  O   -2.70325439101393      0.86275884428539      0.06687571595689
  C   -2.43889544976732      1.84809774793002     -0.72720464815787
  N   -2.21910743666637      2.78088851511522     -1.38234426535295
  H   3.88046432157754      1.08422489360635      0.78075398133624
  H   3.19497797496821      1.78357728094778     -0.70139116599551
  H   4.18526508199808      0.30240366432951     -0.78424960003172
  H   1.91371017011664     -0.40360621603561     -0.84370993518962
  H   -0.48917368700174      0.44007721502031      1.62811128675565
  H   -0.14982283498493     -0.81606728520206     -1.08883206549074
  H   0.21922126607822     -1.98271207023401      0.16891635063452
  H   -2.12653643636712     -1.35448030541774      1.18001497547197
  H   -2.07076365930057     -2.33131407932680     -0.29574398217937
  H   -3.64201732272735     -0.71754913575309     -0.57474546860354
