14
Coordinates from ORCA-job orca
  N   -0.95859883168428      1.62664682726465     -2.81976748512028
  C   -0.98851849351258      0.50366824284181     -2.52054627393764
  O   -1.02829206844400     -0.75154973552977     -2.20403544517280
  N   -1.10895241995790     -0.98675023075129     -0.74758595805628
  C   0.11730077520885     -0.50424578628328     -0.10702969447831
  C   -0.03371595177930     -0.73626475608365      1.37717480818364
  N   0.59957299720744     -0.13914032362245      2.31289342233818
  N   1.56857237907638      0.77028351162617      2.01152215792005
  H   -1.89940684548019     -0.40934227124681     -0.45566241150436
  H   0.31046704445689      0.55754847985767     -0.33155487774878
  H   0.95355712282523     -1.08551127558730     -0.51368286893807
  H   -0.73156410587053     -1.50987367091391      1.68733118245122
  H   1.71655608118585      1.39612093736044      2.79010081856181
  H   1.48302231676813      1.26840905106771      1.12807462550161
