12
Coordinates from ORCA-job orca
  O   -2.29975762607326     -1.60413160003933     -0.83835285851983
  C   -2.37695351877027     -0.43181901989628     -0.59715748782038
  C   -1.22002062890334      0.47795570227944     -0.14840090471609
  O   -1.48756023858950      1.64350773858791      0.06528453433071
  C   0.16140297966557     -0.02740592251772      0.02432102192913
  N   0.50969503305591     -1.27970941920126     -0.20294611763408
  O   1.85822799572143     -1.33767420092156      0.06822796390596
  C   2.29334871929245     -0.12063663863144      0.45366403085287
  C   1.27007907278422      0.76462548413353      0.44958332763557
  H   -3.31780213093009      0.15468196912337     -0.66744569935255
  H   3.34282893498160     -0.05024526720655      0.69294045930344
  H   1.26651240776527      1.81084917428989      0.70028273008526
