23
Coordinates from ORCA-job orca
  C   -3.50598177020071      1.23148021677866      0.78109623163450
  C   -2.73553396256243      0.19147578028146     -0.02728752553655
  N   -1.38033544057069      0.04798317645054      0.48335833141695
  C   -0.60867744148634     -0.79990852100134     -0.07957356685854
  N   -0.92330293739098     -1.60313648504801     -1.15102496931274
  C   0.81984406470215     -0.92484109942370      0.41649669387250
  C   1.74561379432293      0.03165899318936     -0.34921353899921
  N   3.10075872262958     -0.12501976812638      0.18547201291939
  O   3.98220358168837      0.69545295266203     -0.69244620000139
  C   4.71987283987881      1.48771202730650      0.01592532679067
  N   5.41284425697289      2.22437208876289      0.58579002949260
  H   -3.55192905545282      0.93801584967862      1.83351985892966
  H   -3.00585890351075      2.20246336892578      0.72713599651472
  H   -4.52795894768366      1.34470991904142      0.40596320521764
  H   -3.27309565526874     -0.77261438193614      0.01195335116099
  H   -2.72745224004892      0.49094933241744     -1.09037821834496
  H   -0.28288645048134     -2.29714739422952     -1.49131952992575
  H   -1.83839442638654     -1.57637797932025     -1.56416889644765
  H   0.83487335023617     -0.67055753355522      1.47676539890045
  H   1.17034624141574     -1.96011278970005      0.30868198775583
  H   1.42975467763739      1.06182884718752     -0.16994352136305
  H   1.70314987244411     -0.15962909096917     -1.43016149855952
  H   3.44214482911574     -1.05875850937242     -0.04627595925653
