21
Coordinates from ORCA-job orca
  C   -2.88137085908808      1.23668477528172      0.33685529636486
  C   -2.15890975201420      0.23861814280514      1.24374949168631
  C   -0.77875423507529     -0.15445182572171      0.71470596786994
  N   -0.90149862514028     -0.87611922175973     -0.55195026375323
  C   0.11399018850421     -1.35348111402019     -1.13561580874518
  C   1.56618544596659     -1.27215733347974     -0.67729227963408
  N   2.04143878644535      0.09677766696424     -0.92083430112935
  O   3.51578053970404      0.06415418470661     -0.69230340117260
  C   3.86267748081015      0.95289162581226      0.17978202956504
  N   4.24778441733536      1.72625711169717      0.95539334285258
  H   -2.32303558361293      2.17631047792202      0.26078507999181
  H   -2.99246772367392      0.82892337099780     -0.67162029662969
  H   -3.87825945419958      1.47229165036289      0.72029058049264
  H   -2.03760901899459      0.66048509587846      2.24841848338789
  H   -2.76160983069458     -0.67023727320902      1.35374235032645
  H   -0.15613607088732      0.73767250819373      0.57159879101328
  H   -0.26003359780821     -0.78165556125421      1.45454424502956
  H   -0.05215558328324     -1.88555242461385     -2.07644043909314
  H   1.64324252182086     -1.46316264734696      0.39663855539683
  H   2.17021748726540     -2.01614956817841     -1.21060701451630
  H   2.02052346662024      0.28190035896177     -1.92367340930362
