13
Coordinates from ORCA-job orca
  C   2.69243777997216     -0.24142521007689      1.14484915240087
  C   1.86333836282446     -0.83891772358096      0.51378474257412
  O   0.98213368296221     -1.52446726831397     -0.15322257866352
  C   0.13032629769755     -0.76549038072048     -1.03952902726794
  C   -0.88514776162832      0.03880710143681     -0.23343852674831
  O   -1.66173397520575      0.72889037937192     -1.19649328317883
  O   -2.67294676190796      1.46085893570020     -0.47050223414302
  H   3.42967999129044      0.27771433137518      1.70449771292623
  H   -0.36593086369230     -1.50639822664907     -1.66670780566905
  H   0.74263611626965     -0.10926816250775     -1.66515235349230
  H   -1.51175251603308     -0.62974018674250      0.36894014054812
  H   -0.37014788485009      0.73959561982241      0.43634869734773
  H   -2.37289246769898      2.36984179088510     -0.61727263663410
