15
Coordinates from ORCA-job orca
  N   4.58323123727802     -1.13918370918986     -0.62524790226911
  C   3.75886479073848     -0.39253126445122     -0.29347102026523
  O   2.90074172580704      0.50753348160713      0.06271056708595
  N   1.59979637869921     -0.11635806629653      0.41366730306919
  C   0.59553104661226      0.56731679576045     -0.41444876758129
  C   -0.76765631753945      0.27172915726706      0.15267817021753
  N   -1.67538999148107     -0.23045269760235     -0.57117681936775
  C   -2.97050617882121     -0.47055966804748     -0.02620729499198
  F   -3.11453098696959     -0.12730838805025      1.30807560684671
  H   1.50294281261951      0.20108105401913      1.37904574807746
  H   0.66137027910373      0.19145733786099     -1.43610502101081
  H   0.76075264866116      1.65571999103821     -0.41959531987076
  H   -0.93708648059436      0.53062049298035      1.20500387248252
  H   -3.70405876104712      0.10216918679583     -0.60669508048326
  H   -3.19399920306661     -1.53943270369147     -0.12823504193917
