15
Coordinates from ORCA-job orca
  C   2.36004533304172      0.71953366843452      0.68269244241156
  O   1.56749794127483      0.69823277782856     -0.49894768903704
  N   0.71791195376085     -0.42771929558781     -0.47893430329963
  C   -0.60444719558207     -0.16217107763261     -0.08840756771706
  C   -1.59180288107474     -1.24363639724466     -0.42294137203044
  N   -0.85952356075575      0.89855653107196      0.58011890472647
  O   -2.22255527460089      0.90833342995060      0.96645450694262
  H   3.03361360145004      1.57101026397603      0.56287898668186
  H   1.73722653157421      0.86857223489897      1.57077242190351
  H   2.94298658891068     -0.20273286284262      0.78735819535405
  H   0.76760418657672     -0.84068502436947     -1.40480232478233
  H   -1.11218643294839     -2.07619310509535     -0.94253167747779
  H   -2.39171167112092     -0.83735717714229     -1.04786909864465
  H   -2.05919848886274     -1.61845639311156      0.49072667347842
  H   -2.28545963164354      1.74471342686573      1.43741190149046
