9
Coordinates from ORCA-job orca
  O   2.28081866598740     -1.34068555626608     -0.60761740381126
  C   2.24988677351316     -0.21398645551780     -0.22041349822855
  O   1.16247742957157      0.55722402791412      0.01834699394239
  O   -0.04632220589662     -0.20627240695498     -0.27137821511007
  N   -1.04391925251474      0.71304365427231     -0.06611684993549
  C   -2.19659771120468      0.22719075230872     -0.25736117431742
  F   -2.44911377637912     -1.02357405242603     -0.61004578122330
  H   3.11169590767013      0.43195754192091      0.02434083830871
  H   -3.06892483074710      0.85510249474882     -0.12481190962499
