21
Coordinates from ORCA-job orca
  C   3.66063827905503      0.17287122137621     -0.32922197223948
  C   2.74899624891289     -0.51846701722616      0.68627909299203
  N   1.47204931105958      0.17166099900742      0.77796081966556
  C   0.41528798171493     -0.48460856300175      0.53962022090873
  C   -0.94976998447674      0.13357590201123      0.57851516854723
  C   -1.62241931936095      0.12865381679269     -0.81288487485550
  N   -2.97866300948217      0.66199554921637     -0.85903161138907
  N   -3.86669661542552     -0.10242605789079     -0.03649473176029
  H   3.79354642165809      1.22647315234811     -0.07000525439186
  H   3.23070592728122      0.12429268307700     -1.33415835372259
  H   4.64409566945259     -0.30602554362740     -0.35500036380138
  H   2.62631381253021     -1.58420539990218      0.42741422270517
  H   3.21907011238885     -0.47642299586777      1.67681905433787
  H   0.45078735886076     -1.55546762760312      0.26927252539404
  H   -1.58293216634932     -0.44376456940529      1.26459428555959
  H   -0.86494357786032      1.15710962159071      0.95790161866023
  H   -1.01871493261468      0.72100463701089     -1.51040193764641
  H   -1.66111223204447     -0.89540827940933     -1.19881786118035
  H   -2.97130699949019      1.64177955457375     -0.58220549908413
  H   -4.78350805545258     -0.07325263708290     -0.46997761857040
  H   -3.96142423035721      0.30063055401230      0.89413306987103
