18
Coordinates from ORCA-job orca
  N   2.39600029670622      2.91169244007408      0.49919850983075
  C   2.36950784679806      1.77016300939039      0.67789908988945
  C   2.32949084394830      0.31372712011590      0.89886879680481
  O   1.82709063408999     -0.39284082410341     -0.21358200802892
  N   0.44075757358521     -0.04045920078868     -0.39793655100869
  C   -0.36167268367377     -1.26714428822118     -0.33772473285643
  C   -1.85085266375426     -0.88613420209798     -0.46425824579456
  C   -2.41123844830865     -0.44911528914062      0.87871312315992
  N   -2.00547239183359      0.75720251142142      1.18892351915627
  H   1.74067562987024      0.11533216779772      1.80352275779593
  H   3.34797277319927     -0.05439539782874      1.05638812246141
  H   0.42149603772807      0.31755600964658     -1.35161749139838
  H   -0.07055617455877     -1.98800488615029     -1.11287745633065
  H   -0.18062231234858     -1.73401637611068      0.63583082159196
  H   -2.39959527953345     -1.75988177052283     -0.82393154132964
  H   -1.95651409540543     -0.10580146051074     -1.23879429527799
  H   -1.36375256781424      1.32836248383912      0.63087497930232
  H   -2.27271401869462      1.16375795318994      2.07532460203243
