16
Coordinates from ORCA-job orca
  C   2.93568713738450     -0.11527857657675     -0.46390180054678
  O   1.53813668152001     -0.15318730041387     -0.62901997892919
  C   0.85486540473538      0.63956221882058      0.33320407358520
  C   -0.62886404259151      0.53871465061624      0.11953985921303
  C   -1.29752305679977     -0.61088983666245      0.27039229761362
  C   -2.71791862109247     -0.86538476082936      0.05299180019339
  C   -3.58270615753205      0.01778959982045     -0.41239652352175
  O   -4.34530494035147      0.79493636470280     -0.82228295536193
  H   3.33627206440776      0.90518816487112     -0.57485707178679
  H   3.24321845452782     -0.49274249682445      0.52485618498678
  H   3.37335095661289     -0.75078645865244     -1.23670949080867
  H   1.18015113008981      1.68930225655598      0.25667439184270
  H   1.13150269505786      0.29898453765643      1.34696642272213
  H   -1.14683004289761      1.44156157572251     -0.19575345633539
  H   -0.74209807620228     -1.49342654417867      0.57957275470519
  H   -3.13194058686887     -1.84434439462813      0.26663849242847
