9
Coordinates from ORCA-job orca
  O   2.21013161362898     -1.83985808442741      1.02655255240318
  N   1.89309410007030     -0.76859951189089      0.69554327705251
  O   0.47651061310662     -0.56633261064544      1.01940573650260
  O   0.18302357080673      0.78130842072551      0.66823612964507
  C   -0.54318928536913      0.75602120071876     -0.55702286122257
  O   -1.84465725565727      0.29813717680552     -0.43151373113594
  H   0.03700233328717      0.18559071988267     -1.29517790020725
  H   -0.58592961168912      1.81212761086869     -0.83602529409018
  H   -1.82598607818428     -0.65839492203740     -0.31577090894740
