21
Coordinates from ORCA-job orca
  C   -3.41765615076684      0.44587498839657      0.10486074712637
  N   -2.04997910995969      0.15005544765814     -0.29511246619239
  C   -1.54476278213542     -1.11579066934780      0.21745594639760
  C   -0.11248575097376     -1.35622641656872     -0.25701357392026
  C   0.85274982633399     -0.29609307056010      0.21724065440022
  N   2.05262279327880     -0.26142352959259     -0.18131666715672
  C   2.92424937716863      0.76836371606720      0.34435883344870
  N   3.49814525888851      1.50886133783052     -0.78124025627153
  H   -4.14232546678432     -0.35056935678813     -0.14201310443404
  H   -3.75062061935515      1.36983469215518     -0.37491540503976
  H   -3.45618199908804      0.60170171368863      1.18833804494798
  H   -1.97218857816954      0.16386787202884     -1.30679297679321
  H   -1.56129198703185     -1.06240966345654      1.31466334940025
  H   -2.17724709018761     -1.97960353650419     -0.05837056852012
  H   0.23242723912455     -2.33569569156134      0.09358305466620
  H   -0.07739091142015     -1.39924082148746     -1.35226392797705
  H   0.45850116071990      0.44626672063902      0.92922323631945
  H   2.38922898689764      1.48279662941157      0.99271464039365
  H   3.68043452876900      0.25834859506434      0.96748043402792
  H   3.93762977639136      0.84013384785805     -1.40848038651639
  H   4.23614249829999      2.12094719506879     -0.44490060830688
