20
Coordinates from ORCA-job orca
  C   -1.79310743991758      0.56182732061619     -1.97467521099764
  C   -1.83197786621432     -0.36021056994627     -0.78307383511105
  C   -0.86571265756162     -1.14714403921201     -0.39430954734328
  C   0.10445489192836     -1.92527436861964      0.00586434685982
  C   1.17635047693293     -1.55477517559602      1.01306852996043
  C   1.22928443735242     -0.06955449366611      1.38055128163547
  N   1.78667052163784      0.66102545685618      0.23575526218810
  O   1.72197842911112      2.11804924372711      0.51955906794626
  C   0.52557344175150      2.60364970553086      0.46673549711378
  N   -0.53869731303704      3.06898475674351      0.40506523866603
  H   -0.88360614435380      0.41997357142880     -2.56271760933286
  H   -2.65429558865281      0.38248119186549     -2.62744244862767
  H   -1.84213586678298      1.60585230513909     -1.64649953799362
  H   -2.75000590727613     -0.35170448493728     -0.19516747952934
  H   0.15392686194896     -2.94367632765149     -0.37914589684671
  H   1.01468754489880     -2.12557673565764      1.93601781653403
  H   2.15663219627267     -1.86883302091425      0.63519194264347
  H   0.22683272084977      0.28920717306713      1.65145325976646
  H   1.90255440868288      0.08874937961369      2.22600350299297
  H   1.16059185242901      0.54695111161266     -0.56314018052464
