20
Coordinates from ORCA-job orca
  C   4.24140488379962      0.11490848229329     -1.28920313669381
  C   3.67076675061697      0.20433544754427     -0.09394486526223
  O   2.34615182339524      0.09630367800335      0.23615842394820
  N   1.52218503139737     -0.17045687075079     -0.87312095008486
  C   0.29508007006186     -0.20225421814626     -0.52843919613534
  C   -0.28213573293167      0.01856443264811      0.84069768188252
  C   -1.74683132499020      0.43191170945365      0.78683291540536
  O   -2.48134884423590     -0.60917541413721      0.17692760026473
  C   -3.85227291022596     -0.31310179863662      0.03590423086246
  H   3.67422664805466     -0.06685949432936     -2.19010206282322
  H   5.31530902062688      0.22495633890914     -1.36225273546735
  H   4.23098993972572      0.38598603169902      0.81758439715670
  H   -0.38647983579995     -0.43311309787945     -1.34363395274182
  H   0.30366049677393      0.77438702903177      1.37083456395658
  H   -0.19238203383501     -0.90972558901072      1.41897092261323
  H   -2.12283337064444      0.62572296006499      1.80420554397409
  H   -1.86332731198992      1.36790009992463      0.21455748769400
  H   -4.33394848152065     -0.14566542106940      1.01135383201541
  H   -4.01390657016854      0.58147115798757     -0.58477768304715
  H   -4.32430424810998     -1.16986646359996     -0.44855501751751
