22
Coordinates from ORCA-job orca
  C   3.86646643990251      0.62793548213664     -0.65429531794560
  C   2.63314368027408      0.34863051563293      0.20294170439295
  N   2.24865297922094     -1.05186506603624      0.08967156197521
  C   1.04626217434692     -1.41915917570400      0.24881277695561
  C   -0.17793485501298     -0.58372165756567      0.56712708027269
  N   -1.37177910157285     -1.36626913178706      0.23378376469728
  O   -2.54873814570365     -0.78945609374674      0.77091601021998
  C   -2.95759883811409      0.41265250979335      0.10412900969172
  N   -4.29537066145630      0.68684470088636      0.53216613091098
  H   4.68846749511374     -0.03191136668536     -0.36533797542163
  H   4.19319963965045      1.66617135226952     -0.54022338465515
  H   3.65072486021497      0.45047067581568     -1.71195602408425
  H   1.82241452254894      1.04299117764130     -0.06546913773784
  H   2.86995825375783      0.54522841788546      1.25783292368015
  H   0.83278801046246     -2.48989616719613      0.17327577840244
  H   -0.22173367986200     -0.39588625859234      1.64726811829538
  H   -0.12503829243188      0.39775099981933      0.07331300458950
  H   -1.49649867637282     -1.40467797054237     -0.78000757432671
  H   -2.31803179708341      1.26044091773591      0.38651404507049
  H   -2.83603085159634      0.24514316555646     -0.98481294021919
  H   -4.98914194324040      0.17532090802111      0.00217932120359
  H   -4.51418321304613      1.67326206466186      0.50710212403237
