15
Coordinates from ORCA-job orca
  C   -1.33971583458657     -0.34672525905222      0.71606177784272
  C   -0.84384988697597      0.94326282813531      0.02501718615795
  N   -1.69437173305375      0.58302680251763     -1.14435917342909
  C   0.58461437073418      0.55012157412628     -0.19204817873057
  N   1.33080947027490      0.53484125324655     -1.21751056107402
  C   2.30314251498173     -0.51105580043918     -0.96854861428441
  O   3.21397821429742     -0.82040969809452     -1.66031027043136
  O   1.98429498124644     -1.18390674590834      0.21434707543631
  C   0.96498254704454     -0.47170022482897      0.85586143427987
  O   -1.99149903467188     -0.72214375293855     -0.50319900511911
  H   -2.04227313625374     -0.31117963448454      1.55382055565971
  H   -1.00279935978210      1.92175211178357      0.48068031075101
  H   -2.57718899236686      1.09243841616810     -1.05809246420582
  O   -0.24853039805452     -1.16570257880973      1.09117748563497
  H   1.35840427716619     -0.09261929142138      1.80710244151185
