12
Coordinates from ORCA-job orca
  C   2.64657340646756     -0.20306136982243      0.02878045736515
  N   1.52251738314895     -0.49705109077682      0.54900856498203
  C   0.36478052246564      0.00857262240791     -0.04478828930948
  C   -0.84464812013913     -0.26170434262623      0.45773915794107
  C   -2.14127449803112      0.24037026960855     -0.11519549924835
  H   2.75547690520827      0.42796005671035     -0.86455552715959
  H   3.56078203835314     -0.58812908669634      0.47810697977192
  H   0.47602301197482      0.63594365869796     -0.93747624888531
  H   -0.88036450363168     -0.88949802316811      1.34418507283908
  H   -2.17795535044288      1.33530065726437     -0.13250439493998
  H   -2.28621373107724     -0.10119280515249     -1.14617289182406
  H   -2.99569906429635     -0.10751054644671      0.46894761846752
