8
Coordinates from ORCA-job orca
  C   -1.55660920000867     -0.21496355038062     -0.72798875657423
  C   -0.43949533845617      0.45932378716671     -0.73068974371431
  N   0.54338345118447      1.19066540585862     -0.86446241471115
  O   1.75267215324817      0.89198336953449     -0.27691791401638
  O   1.70322287118867     -0.33501493396836      0.50274137029137
  H   -2.30225391371321     -0.06159194147844      0.04382727001562
  H   -1.75612457596933     -0.95966493579617     -1.49072759694509
  H   2.05520455252607     -0.97073720093622     -0.14008821434583
