14
Coordinates from ORCA-job orca
  C   1.35402974348557      0.61207924699410      0.90384213406689
  C   0.58500371127780      0.03844980190020     -0.27680509105377
  C   -0.77292787994950      0.72132366778553     -0.69605314959157
  C   -1.47215542329831     -0.61869109327876     -0.44228771435701
  O   -1.23161923057984     -0.97133325344762      0.92733473225814
  C   -0.21253656559807     -1.25965463084208     -0.03970376937653
  H   1.72311786748394      1.61871277945051      0.68202556812806
  H   0.70817804496048      0.67028450452887      1.78416424437493
  H   2.21882106294888     -0.01166147529864      1.15483437026215
  H   1.23310483433552     -0.07046466909456     -1.15243645494877
  H   -0.78533883644488      1.03090368001100     -1.74374890644070
  H   -1.11950670399868      1.54637416170394     -0.06820938496794
  H   -2.35986320978092     -1.02077240493693     -0.91746604844886
  H   0.13169258515804     -2.28554931547555     -0.11548952990502
