19
Coordinates from ORCA-job orca
  C   -0.11798175448134     -0.94471894240364     -1.39758418012948
  C   -0.18022451149146     -0.62373321702628      0.10028312404134
  C   -1.50744919715930      0.00349075879602      0.53944187782464
  C   -1.76731338460710      1.38325844375839     -0.04836668496806
  F   -2.94454887921557      1.88425445327237      0.48344847742942
  O   0.85166802522179      0.28687755712509      0.48604299056177
  C   2.11056951446915     -0.30579843715447      0.72571472950284
  O   3.02171351044064      0.68305327567412      1.06967095374855
  H   -0.93604378694110     -1.61433890936689     -1.68011291880009
  H   -0.19294698282013     -0.03428096061094     -1.99766346431341
  H   0.81982184019475     -1.44242215662416     -1.65778374623483
  H   -0.05884416248566     -1.56234472421231      0.66333317426875
  H   -1.50437779213012      0.09669227870279      1.62999856454435
  H   -2.33229599270548     -0.66548668864802      0.27047227993387
  H   -0.95311490392171      2.07130418680643      0.19919498290081
  H   -1.87996546585580      1.35143406542997     -1.13846820191128
  H   2.05582747318129     -0.99433863879685      1.58175390233038
  H   2.43817128742202     -0.87525450034254     -0.16250858461469
  H   3.07733616288513      1.30235115562092      0.33313272388513
