24
Coordinates from ORCA-job orca
  O   -4.38564787102225      1.15647418499537     -1.10849397883117
  C   -3.50009287824785      1.23818410458074     -0.00768778849586
  C   -2.99311211357581     -0.15943641147225      0.30803390832721
  O   -2.14981717250528     -0.68839329732082     -0.71470265070046
  C   -0.81935278768910     -0.34333713253459     -0.61858184572936
  O   -0.23820899400165     -1.00953428225689      0.50637406862525
  C   0.99151541053772     -0.51193806263877      0.88333968372173
  O   1.95336147969422     -0.81790399914052     -0.10862619709592
  C   3.23070790587684     -0.29313952016611      0.17422644737308
  C   4.13805470982828     -0.68540091579918     -0.98010662065626
  F   5.40216733099940     -0.18144037984372     -0.75294681927262
  H   -4.66060497238417      2.04604104314390     -1.34856827368358
  H   -2.65133408483252      1.90713449263065     -0.22115454314860
  H   -4.00289666526309      1.62990531175173      0.89236319267866
  H   -2.47522265967884     -0.16410117073236      1.27407339171650
  H   -3.84661692811797     -0.83959487600795      0.37012459729913
  H   -0.66160917151046      0.74433709073118     -0.49147073690058
  H   -0.33446781863723     -0.67417549818491     -1.54114757898933
  H   0.96234779621113      0.58712071049499      1.02893404106404
  H   1.25597744890811     -0.99200004521788      1.83647385359974
  H   3.63373183961587     -0.69722353411969      1.11658415773256
  H   3.20449485368944      0.80438606136397      0.26997293657959
  H   4.19434301827084     -1.77623518282728     -1.06749521596521
  H   3.75228232383439     -0.27972869142960     -1.92240802924855
