17
Coordinates from ORCA-job orca
  C   3.39245803721788     -0.14603715756356      0.15596553154244
  O   2.13023994970164      0.39345633855992      0.49785879122669
  O   1.17601444417548     -0.19091634609608     -0.42566653462667
  C   0.22074345914075     -0.86209593799027      0.40092631603126
  O   -0.81691033047975     -1.25835864951103     -0.42153540731124
  C   -1.71506908879000     -0.21788826071084     -0.80670120166228
  C   -2.94873778008515     -0.25891152220172      0.08549382682933
  F   -3.85060631219908      0.69119923021242     -0.35131748562954
  H   3.66757022706663      0.10303707022655     -0.87506662018910
  H   4.09465808737707      0.32928749430212      0.84715692332405
  H   3.42242414707124     -1.23402953671064      0.29068062064821
  H   0.66000050281807     -1.76588476184979      0.83930377007630
  H   -0.09073103453538     -0.17104112763491      1.19840308779458
  H   -1.23037803352415      0.76250285394262     -0.76178651917596
  H   -2.00425945349602     -0.40483268462807     -1.84435829193411
  H   -2.68956979588858     -0.04752813502518      1.13052096472352
  H   -3.41784402557065     -1.24865086732156      0.04012222833252
