18
Coordinates from ORCA-job orca
  F   2.71771783653315      0.96372183845738      0.83738598224433
  C   2.51580151714385     -0.27933905711373      0.25028721375071
  C   1.02924252022846     -0.57313435328851      0.16279020371607
  C   0.28880407515872      0.46041499456617     -0.69532049740874
  C   -1.22201956679007      0.23478496255152     -0.83604721270863
  C   -2.05896525343357      0.53759544429698      0.40306785470626
  O   -1.81654476812048     -0.30802311675614      1.51972530333346
  F   -2.21786817577954     -1.62141664097911      1.09516215827693
  H   2.98230618512865     -0.25819567605442     -0.74399898543322
  H   3.03674309729386     -1.02779370311839      0.85912033399363
  H   0.61227200387862     -0.60431420812693      1.17288505482490
  H   0.90190436671542     -1.57873118013646     -0.25878972511014
  H   0.73007461131604      0.46000384131115     -1.70069063672535
  H   0.47883754080186      1.45990703373324     -0.28553689910212
  H   -1.60874087064797      0.88457969047508     -1.63114137844667
  H   -1.43205769842318     -0.79300044897342     -1.15146426069665
  H   -1.80635038362778      1.51770938348036      0.83095151018013
  H   -3.13115603737602      0.52523019567523      0.17161498060511
