17
Coordinates from ORCA-job orca
  C   -0.56438300558051      1.30799825968947     -0.17511306531077
  C   0.96764507911850      1.03449343678498     -0.23578902620569
  C   1.41179455985599     -0.34370456109793      0.28821579419868
  C   0.47723742637858     -1.45130348987391     -0.15015863716425
  O   -0.28019037372624     -1.23892621354387     -1.35421718310326
  C   -0.96158886486439     -1.19350331789337     -0.08862760824396
  C   -1.41493766714014      0.16369436430166      0.40618166737877
  H   -0.91784224843136      1.50271064995990     -1.19086926178852
  H   -0.76465460073118      2.21767802084755      0.39955509799520
  H   1.28849484343561      1.11448995115507     -1.27760793272048
  H   1.51312160912956      1.80837642513387      0.31324589764517
  H   2.43687941732957     -0.54836676918185     -0.04008274089674
  H   1.43861267097513     -0.35419675740656      1.38694896687107
  H   0.83820360529297     -2.47270535457244     -0.02757789830796
  H   -1.64278787182932     -2.02807981082232      0.07859899031611
  H   -2.47024168571232      0.33140778651121      0.16372552213897
  H   -1.35536189350047      0.14993738000855      1.50357241719767
