21
Coordinates from ORCA-job orca
  C   0.93876807820864      0.13255698692423     -0.98534799051175
  N   2.20505288812967      0.09640228430281     -0.69156855247553
  C   2.75392563285776     -0.40495368512244      0.32635001525778
  N   2.20248252187260     -3.93459715517202     -1.48227268338845
  N   1.28595735447784     -3.33310507994912     -1.56497651570842
  O   -4.89512383900698     -0.13316832489383      0.11393785704118
  O   3.47916558706039     -0.87563055443470      1.08696809248022
  O   3.33217255582608      0.93180218341599      2.56176779802158
  F   2.47522830898761      1.41400095534913      1.57155062120354
  C   -0.05224833020662     -0.47474901398854     -0.07032237736851
  N   0.54435433918774      0.65043072452001     -2.24411372159724
  C   -1.98482273467312      1.49776277345061      1.02228421717743
  C   -3.77599781843053      0.09001917195732      0.19773596866659
  C   -2.45778981393560      0.32951804847030      0.28410011287809
  F   1.48455152880163      1.55219768573999     -2.67292744804421
  O   0.35355732819759     -1.00840736173391      0.94276402910556
  O   -0.86500305046265      1.89546234251917      1.07901475957475
  F   -2.99864355382103      2.13035655755747      1.64314780154334
  C   -1.53987177744137     -0.56388665391125     -0.44453418851219
  O   -1.87710046591453     -1.41341234561714     -1.23661083378387
  F   -0.60861573971512      1.42140046061592     -2.01373996155986
