18
Coordinates from ORCA-job orca
  C   2.94851879345094      0.07969733264668     -0.05775974381898
  C   1.53718652264142     -0.26808998624550     -0.46579224724816
  C   0.43660433672665      0.13710070105288      0.16447347875785
  C   -0.97617027590002     -0.20094041124141     -0.22836789395964
  C   -1.76839025234040      1.07159911051822     -0.57586940454462
  C   -1.68057687234215     -0.99242064174455      0.88733477940297
  H   3.11838919198516      1.16177941754243     -0.07364185650176
  H   3.68171249140337     -0.37534296801487     -0.72809022537984
  H   3.17299444975210     -0.26769868171803      0.95657451416021
  H   1.42552746221225     -0.90095062962539     -1.34569044634878
  H   0.53577544729614      0.77145879569213      1.04929148481271
  H   -0.93540408650057     -0.83439127398280     -1.12413315573378
  H   -1.82579478739053      1.74295683905297      0.28859289960486
  H   -2.79302889554798      0.82762991255135     -0.87545639176443
  H   -1.29407480962537      1.62065724469362     -1.39427369218511
  H   -1.73528672514094     -0.40271693256316      1.80960975722280
  H   -1.14366653430251     -1.91778570749611      1.11492185367247
  H   -2.70431645637757     -1.25254312111849      0.59827628985124
