7
Coordinates from ORCA-job orca
  C   -0.90208400000000     -0.07023500000000     -0.04917600000000
  O   0.35867000000000     -0.25681100000000     -0.63819100000000
  P   1.51884900000000      0.28938400000000      0.47812100000000
  H   -1.00624600000000     -0.67283700000000      0.88118400000000
  H   -1.09738100000000      1.00684700000000      0.15405600000000
  H   -1.67834700000000     -0.42017500000000     -0.76025300000000
  H   2.80653900000000      0.12382700000000     -0.06574100000000
