15
Coordinates from ORCA-job orca
  F   -3.19191181011478      0.70792120443094      0.74949440700232
  C   -2.37087127438403     -0.06748296673157     -0.04353876202860
  C   -0.92753297771437      0.16238863739219      0.37557221967996
  O   -0.12320111575181     -0.64753419732929     -0.45830727682786
  C   1.23847398565083     -0.72295030595750     -0.08966011860476
  C   2.03196276766361      0.49399887939840     -0.55979310995143
  F   3.36486388608565      0.29154981509791     -0.25845080796713
  H   -2.63918830963503     -1.12311400375203      0.07709962673101
  H   -2.51629184679690      0.21093064435342     -1.09348891703781
  H   -0.68621514903326      1.23057890500843      0.27636285705960
  H   -0.80331176190051     -0.11214490349732      1.43419805798500
  H   1.35334312413376     -0.84419380961123      0.99755980139525
  H   1.64831559150091     -1.61600888602163     -0.57047443783225
  H   1.69975798001112      1.41393197612436     -0.06476193922219
  H   1.92180691028480      0.62212801109489     -1.64295260038110
