23
Coordinates from ORCA-job orca
  C   3.52267198047530      0.27111481418135      0.95207985252872
  C   3.11726282285065      0.21958040032762     -0.52387379311121
  C   1.60880193742199      0.19700575168641     -0.74501252507653
  O   1.13212847111188     -1.02813755423726     -0.20024764515398
  O   -0.30240817888002     -1.04782599802597     -0.39023321469316
  C   -0.86468150842270     -1.07181961717031      0.92648257265039
  O   -2.23245498208681     -0.96351387334263      0.79787919647685
  C   -2.70170384407264      0.33974473189642      0.44788824853034
  C   -4.21302224002193      0.27746845365627      0.33318294117331
  H   4.61078970565088      0.29842487710068      1.05873632273496
  H   3.15098616936077     -0.60362581804186      1.49120176766793
  H   3.11755873511654      1.16372128402336      1.44094512124285
  H   3.50898031326869      1.09449106719193     -1.05581655473822
  H   3.55478959532050     -0.66176762859904     -1.00578790557919
  H   1.36416547599943      0.24349263726646     -1.81392189760886
  H   1.12267173271901      1.04708940603398     -0.24474027180987
  H   -0.42341224975689     -0.25022991310861      1.51592232689252
  H   -0.64809763183614     -2.03283407271342      1.40613821862896
  H   -2.24831347083985      0.66077800200011     -0.49751219472100
  H   -2.39537339872614      1.05610960192760      1.22630764658811
  H   -4.50990876834524     -0.43055519402441     -0.44474444597583
  H   -4.66086570247638     -0.04233681568803      1.27785052246800
  H   -4.61056496383089      1.26362445765932      0.07593171088490
