18
Coordinates from ORCA-job orca
  F   -2.51512184756571      0.54740546005514      1.62658411522262
  C   -2.28041589903562     -0.52514014864830      0.77413635116322
  C   -1.90209184045676      0.00226563527824     -0.59987121931936
  C   -0.59628694983254      0.78423865686255     -0.57157466676215
  O   0.45817758169463     -0.12862993991342     -0.32591518622178
  C   1.70128221144889      0.48640947665471     -0.09017364008135
  C   2.74287974282644     -0.58267707434356      0.14417549516048
  F   2.52549159343627     -1.22414864854128      1.34555777931169
  H   -3.19248537687189     -1.13181209810933      0.73358213594120
  H   -1.46957697934845     -1.12671739139423      1.19939875831520
  H   -2.70449397734603      0.65131799447908     -0.96781224015330
  H   -1.80863964970999     -0.83982246202306     -1.29535295861857
  H   -0.43168180985644      1.30796562771019     -1.52693784099298
  H   -0.63966911494549      1.54594653279613      0.22254190980397
  H   2.01543743593764      1.09766882058323     -0.95518762536019
  H   1.65031377187751      1.15500643460596      0.78473939567452
  H   2.70479696795817     -1.32775111632085     -0.65956375652585
  H   3.74208413978937     -0.12833075973119      0.16167419344262
