16
Coordinates from ORCA-job orca
  C   2.35637193713571      0.29012611152731     -0.62818796642504
  C   0.91215783708535      0.37958490732221     -0.28237201775217
  N   0.37129860315213      1.29106930959015      0.40871254349157
  C   -1.04572426352983      1.35771901184503      0.49343725478192
  N   -1.76186161946561      2.54323256575559      0.72349708795050
  C   -1.62548630166837      0.18076915096277      0.18268575231794
  C   -0.93279719368819     -1.01219742206618     -0.16764474205746
  C   -1.04251858995156     -2.36087076582022      0.49956070685978
  O   0.21248092620183     -0.76155483054786     -0.85321523130153
  H   2.86837407671100      1.18529991953818     -0.27970387622216
  H   2.80786938562475     -0.59492600032938     -0.16875706260852
  H   2.47161989859402      0.18907505991980     -1.71169508645757
  O   -1.07668603663149      3.53244578519468      0.92642541520313
  O   -2.38714332266813     -0.52501379094669     -0.62761289610582
  H   -0.10354015938399     -2.94471712167957      0.41982977455819
  O   -2.02441217751763     -2.75004189026583      1.06504034376724
