17
Coordinates from ORCA-job orca
  O   -2.82153685613952      0.12087407611954      1.19901819389114
  C   -2.33886444658447     -0.64321498573575      0.10358938942114
  C   -1.14249898498500      0.00964896131570     -0.55221982443585
  O   -0.29260879839359     -0.84293862196298     -1.32404671827446
  C   0.22727480593091     -0.27332438435555     -0.11622444016695
  C   1.34502700937478      0.73361378969829     -0.24477411420122
  C   2.72302325018198      0.09369497081953     -0.30625704494044
  F   2.83182856618732     -0.70563462990175     -1.42659846516243
  H   -3.29565728134886      0.88408970248775      0.85397523989320
  H   -3.12629270284127     -0.81923765363276     -0.64407347902204
  H   -2.04229891743278     -1.61877523868722      0.49967626107005
  H   -1.33834927170260      0.98259689882438     -1.01231528444501
  H   0.35172720669999     -0.99837587120475      0.69215747054340
  H   1.18446298488880      1.34135805748661     -1.14139552150180
  H   1.32220425064513      1.40653161068075      0.62304489355566
  H   3.50710130318195      0.85989089896281     -0.34926234611827
  H   2.90545688233723     -0.53079758091460      0.57914678989386
