14
Coordinates from ORCA-job orca
  C   2.32936257287971      0.40194876337896      0.26551164753069
  N   1.43243215208585      0.97839450461769     -0.71390077614186
  C   0.27789161618062      0.50974180303277     -0.84064218668508
  C   -0.63240808240453     -0.59854657047063     -0.14200901014745
  N   -1.45653007829250     -0.43872351829352      1.03003385409389
  N   -2.76387130913374     -0.20692005322074      0.64772115904164
  N   -2.87858189856397      0.10802725259839     -0.58406158060934
  C   -1.56910379537031      0.10945394948103     -1.06797003365807
  N   -0.79551399470160      0.95434604338419     -1.69109055090020
  H   2.60476441022395      1.16782493857701      0.99767516329512
  H   1.91241736637740     -0.46216682727655      0.80397124340154
  H   3.25224073189634      0.09373083438431     -0.23598211814295
  H   -0.33068527111389     -1.63043929060418     -0.34391884823109
  H   -1.38241542006332     -0.98667282958874      1.87466203715317
