18
Coordinates from ORCA-job orca
  C   1.99045858877912      0.87947037151393      0.30644503544808
  C   1.17280131590164      0.13256010728173     -0.73578513266509
  F   2.05820148425921     -0.39595824754408     -1.67692269903038
  C   0.34103413528631     -1.02607880163580     -0.19563766057112
  C   -0.75903399991224     -0.63996546628004      0.80478872728053
  C   -1.82608237373803      0.29718245591383      0.24730993712694
  O   -2.40563240681972     -0.32276741869642     -0.89354582198698
  H   2.60862690987585      0.18485934381521      0.88348170208874
  H   1.34145317695156      1.42362968603252      0.99867614963113
  H   2.64740410153284      1.60295108961244     -0.18296107140456
  H   0.52791055418155      0.83570532070589     -1.27901449505005
  H   1.02479016301323     -1.74128938145807      0.27642555766948
  H   -0.11498101499938     -1.53337034974321     -1.05020691546838
  H   -0.32687587486292     -0.17258487509643      1.69757772041766
  H   -1.25338421571546     -1.55682291097631      1.14380007615440
  H   -1.38554274283045      1.27158474534480     -0.01584192788214
  H   -2.58309910326016      0.48769317072723      1.02313699205535
  H   -3.05804869764296      0.27320116048276     -1.27286617381361
