17
Coordinates from ORCA-job orca
  O   -3.83646072357503      0.30320424078156     -0.19238937081123
  C   -2.68414686995207     -0.28387522624641      0.30475796717411
  O   -1.62539583401236     -0.06483482913472     -0.60886727803808
  C   -0.33959265116956     -0.27224384043713     -0.10630417600845
  O   0.48412896047236      0.69053198695627     -0.70118685109884
  C   1.79903616613147      0.27386813147691     -0.99921917291416
  C   2.68429293581762      0.08194503299200      0.22184673083806
  F   2.81210235996521      1.26191267942948      0.92139643749548
  H   -3.64661008569270      1.23647487668720     -0.34440538089616
  H   -2.39226199037497      0.11918864992023      1.29274359351000
  H   -2.90615136466533     -1.35463918908918      0.41103725735383
  H   -0.33801351060677     -0.16169790485053      0.99339175319022
  H   0.01813442887518     -1.28889618196424     -0.35500993302980
  H   1.79899618842121     -0.66858168114348     -1.57271315381994
  H   2.22154691246918      1.05886592166233     -1.63230429093562
  H   3.67942529170219     -0.25367608489066     -0.09988456545570
  H   2.27096978619439     -0.67754758214963      0.89797843344628
