17
Coordinates from ORCA-job orca
  C   -3.03817760522504      0.45892036574905     -0.13177200723337
  C   -1.75013325752689     -0.04132890212916     -0.75979338941049
  O   -0.70000938210740      0.13847732900287      0.17338401273856
  C   0.53404058852465     -0.28262091856244     -0.31215923384267
  O   1.45503604304622     -0.02656701595770      0.71651156288702
  C   2.77360198222178     -0.37275317231507      0.39405217892488
  O   3.33634188903608      0.43152629013348     -0.61207475669049
  H   -3.26188085612721     -0.09768065042975      0.78203744945974
  H   -3.87167251181645      0.33317962223101     -0.82904538977751
  H   -2.95472849870004      1.51847268942535      0.12378516814869
  H   -1.83861987439587     -1.10637287506618     -1.03213320309981
  H   -1.53046134717070      0.50916284083582     -1.68976144426957
  H   0.52020775655337     -1.36739012100452     -0.54821022354834
  H   0.81022348381221      0.26502630148250     -1.23097191900795
  H   3.32313567174751     -0.29827669791872      1.33966029565278
  H   2.83568637080573     -1.40016095003720      0.00849391591945
  H   3.35741054732205      1.33838486456066     -0.28421901685091
