20
Coordinates from ORCA-job orca
  C   2.86954489087213     -0.04087310265212      0.38057887260886
  O   1.62064398851152     -0.46454133651368      0.87647841406243
  C   0.55541112911089      0.43422495219067      0.60831393120630
  C   0.14043498204620      0.40870387900316     -0.88103744233374
  C   -1.36375049691763      0.67135213658675     -1.00571969807397
  C   -2.15363029337436     -0.42677468573048     -0.26567184185707
  C   -1.34208756927669     -0.93222397371466      0.94370919767463
  O   -0.50343591597625      0.10363337854002      1.45669454933141
  H   2.91249447324007     -0.03960046706659     -0.71887731306033
  H   3.12384596059135      0.97124158874057      0.73372466364349
  H   3.61958300784164     -0.74097805973881      0.75434282161961
  H   0.86449772934024      1.44922662378783      0.90556646256122
  H   0.71974429811790      1.14663020906583     -1.44344145125533
  H   0.39126154073710     -0.57653891111206     -1.29315639670426
  H   -1.59109953203537      1.64765093696862     -0.56361291471112
  H   -1.66423338596606      0.72565740596071     -2.05634830240778
  H   -3.12388170658024     -0.03741195968816      0.05763344001043
  H   -2.35750603637111     -1.26985852083582     -0.93604106671393
  H   -0.72962656403411     -1.80173287099250      0.67404810819925
  H   -1.98821149987721     -1.22778822279925      1.77281696619989
