19
Coordinates from ORCA-job orca
  C   -2.38219839676513      0.04113322978884      0.83409442869920
  C   -1.07743428598577     -0.46403966560494      0.23238542825876
  C   -0.78284546341843      0.10445446426799     -1.16088026731353
  C   0.02848297267016      1.23936495648411     -0.59932425476097
  C   0.18575803627272      0.32929989350436      0.68997394626749
  C   1.32209573960699     -0.37946412216354     -0.05457177349284
  C   2.70983914857688     -0.58164847222345      0.33517579893160
  O   1.78518449334366     -1.68946663902670      0.21898619484460
  C   0.74393682515791      0.12735995976377     -1.34685452201245
  H   -2.45434750800395     -0.22493869502855      1.89377117994854
  H   -2.46042745108896      1.13047727844934      0.75163477220098
  H   -3.24697064071218     -0.39560134218139      0.32336883003502
  H   -0.99762619759944     -1.55200325027598      0.34662004490466
  H   -1.43221764742265      0.11280406199431     -2.02866201955577
  H   0.03749027179955      2.30726772742322     -0.75818051857120
  H   0.29828268911678      0.66135156045299      1.72075845843382
  H   3.03166634193901     -0.35150086828566      1.34994384995098
  H   3.49679006863801     -0.55766340451971     -0.41749722455080
  H   1.19454000387483      0.14281232718100     -2.33074435221811
