17
Coordinates from ORCA-job orca
  C   3.35238545621337     -0.08612276883867      0.52166535314929
  O   2.38792012883964      0.08138026068846     -0.49826652331177
  O   1.22022092700087     -0.67183309194582     -0.07972090458561
  C   0.16354631741000      0.26109813739654      0.04986984335971
  C   -1.06498654557319     -0.54679908187466      0.46407383748426
  O   -2.17626409988596      0.33093962293203      0.64453785740995
  C   -3.01658830715222      0.42791104361680     -0.44279193324761
  F   -3.74401580957356     -0.73226496871092     -0.61063454139537
  H   4.22919245507775      0.46466881384796      0.16855742924698
  H   3.61323990542882     -1.14197417432837      0.65715757036461
  H   3.01506596231573      0.33493055533919      1.47704154268222
  H   0.39106576363369      1.01724008138471      0.81265679639681
  H   -0.01087805520379      0.77544177618182     -0.90467342494861
  H   -0.88499073057855     -1.03951831680284      1.42266445437940
  H   -1.29182855675387     -1.32301138515462     -0.27388265436715
  H   -3.71051736844568      1.24812401523434     -0.23721882647046
  H   -2.47257044275304      0.59978648103406     -1.38367087614666
