17
Coordinates from ORCA-job orca
  O   -3.01175564095912      1.02401714159013     -0.27019591689819
  C   -2.58836249117178     -0.32220644962076     -0.35174596582071
  C   -1.08303815634706     -0.48732703325145     -0.47675158866595
  O   -0.46418303567725     -0.01281513035982      0.71064315861079
  C   0.90601628249638     -0.13997425480525      0.73522706960709
  O   1.48914460099169      0.74886158770328     -0.22183167938228
  C   2.81167881006189      0.49748092933030     -0.49287344131723
  F   3.61108790771581      0.80669092962209      0.58952866997395
  H   -2.69432797323079      1.49138428501429     -1.04994702075648
  H   -2.92836058687952     -0.80121427449852      0.57106553163489
  H   -3.05990754625828     -0.85156789616232     -1.19602839467618
  H   -0.84244604778793     -1.55249517029981     -0.63134059208819
  H   -0.70892999646721      0.06833722374301     -1.34847846791183
  H   1.23312930169690     -1.17071902587269      0.49615750279405
  H   1.23863676030039      0.12952804443999      1.74170020947620
  H   2.99040716078928     -0.56449027195903     -0.72778109257027
  H   3.10121065072660      1.13651036538657     -1.33203498200966
