15
Coordinates from ORCA-job orca
  N   -1.46780306301579     -0.68043075195490      1.13549526163795
  C   -0.94562053643040     -1.05719027540903     -0.06583275152620
  O   -1.12612086110999     -2.14148653621460     -0.56937743768715
  C   -0.10453149686375      0.05377047913803     -0.77050869339176
  N   -1.00732534224755      1.07545564293382     -1.28543345492972
  F   3.03378851605175      0.24082641643029      1.28372975620889
  C   2.23265387355411     -0.24260909197827      0.33741577774467
  O   2.51138256478678     -1.19107560719344     -0.31998166007539
  C   0.93697104748914      0.58590489684427      0.20856285288511
  H   -1.28222105391441      0.21529847612959      1.55416289363985
  H   -2.07729816235879     -1.32384810248123      1.61418024563123
  H   0.38956692651715     -0.46016774092266     -1.59496828780971
  H   -0.49717021735428      1.71200783276537     -1.89063629231124
  H   -1.36853539314614      1.64188846308484     -0.52333951708160
  O   0.77226319804217      1.57165589882793      0.88653130706508
