24
Coordinates from ORCA-job orca
  C   -3.82401033890034      0.71237716088706     -0.22160951669591
  C   -2.79838428780881     -0.26778093400077      0.35674179712298
  C   -1.56465949408128     -0.44888387987082     -0.54446843028777
  C   -0.58666773507013     -1.45211920785364      0.00015870056393
  C   0.71418481060329     -1.26403171488014      0.22642132143891
  C   1.50298524309357      0.00077198765990     -0.02818206158337
  C   2.91701970472301     -0.04623070261179      0.56600210558007
  C   3.72274908904497      1.22866988514225      0.30114942428531
  H   -4.68803384619608      0.82113806217175      0.44023169293016
  H   -3.38587313402198      1.70587201534057     -0.36205117016907
  H   -4.19119865682806      0.37154692159644     -1.19522905267512
  H   -2.47264369369784      0.07749275148335      1.34478401891983
  H   -3.27212704178517     -1.24407890003228      0.51579896276671
  H   -1.90518916985940     -0.78047674466847     -1.53663238246753
  H   -1.07760611521496      0.51944285080687     -0.70012446739209
  H   -1.00910365507821     -2.42955303314849      0.23271500844469
  H   1.28324035734435     -2.10155890970170      0.62793162782869
  H   1.57850557376020      0.18354241692812     -1.10888919261023
  H   0.97086074309165      0.86680829137885      0.38515966907347
  H   2.84640891441109     -0.22032159034919      1.64653446882050
  H   3.45025657354235     -0.91022352399144      0.15088262240360
  H   3.22786297935549      2.10555164371345      0.73125832930845
  H   3.83747226987437      1.40694156216858     -0.77302897828936
  H   4.72395090969796      1.16510159183152      0.73682350268316
