22
Coordinates from ORCA-job orca
  C   3.96212993289882      0.75831937387432      0.54173198901934
  C   2.73776833398134      0.27205257744576      0.72554933125576
  C   2.12720426369537     -0.85223607461961     -0.06062297876134
  C   0.90221643127442     -0.43149109181252     -0.91402382048840
  C   -0.24352173993009      0.11548806369316     -0.11151314281552
  C   -1.43636731523411     -0.46333327622131      0.01896789719738
  C   -2.58661522756925      0.08184443737862      0.81558905622815
  C   -3.81693209364283      0.39147669146892     -0.05284340410139
  H   4.62827253469174      0.35156561289259     -0.21455703692280
  H   4.34895633342651      1.57660261197009      1.13969748439913
  H   2.11018188625502      0.70889845350292      1.50105719776959
  H   1.80586514511276     -1.64612235532365      0.62673655410167
  H   2.88520159781611     -1.28730845245274     -0.72175878527851
  H   1.23581699951770      0.32107950905069     -1.64082765832116
  H   0.56254865681410     -1.30077369044593     -1.48808706058866
  H   -0.06464066028597      1.05986995970059      0.40294054191220
  H   -1.62354097055503     -1.40387770071424     -0.50308432521420
  H   -2.26853489782080      0.98648176210133      1.34590551484769
  H   -2.87439709720422     -0.64644635474402      1.58638504130945
  H   -3.58220735895704      1.15176048971448     -0.80369219277727
  H   -4.64802423162201      0.75894301695764      0.55683915628186
  H   -4.16137852266255     -0.50279356341708     -0.58251635905296
