20
Coordinates from ORCA-job orca
  C   -1.02623369539188     -1.66133580773170     -0.81249633625362
  C   -0.54631803079707     -0.34904305660111     -0.19055964250938
  O   0.47947553999176     -0.56791713468645      0.77465138185625
  C   1.79294902254001     -0.68389217379610      0.26902824743533
  C   2.45052299175835      0.65353830432906     -0.02694082638889
  F   2.59316083187339      1.38533652657052      1.13290624325376
  C   -1.66516970718130      0.34899332477168      0.55000712133234
  C   -1.81816626657574      1.80446708898745      0.52637339647017
  O   -2.66144508229556      0.96042665536376     -0.26843344991871
  H   -1.85081632707931     -1.46367706317031     -1.50313998037066
  H   -0.22716622796078     -2.15807552749859     -1.36982673322044
  H   -1.37429580535583     -2.34341996969036     -0.03138391106824
  H   -0.19942821270216      0.32446758481694     -0.98762014140186
  H   1.83234984241107     -1.30419075432913     -0.64009101613652
  H   2.37369284264622     -1.19364060798005      1.04429995015030
  H   3.44376975046386      0.48151729209356     -0.46388725674275
  H   1.86409552801644      1.24696454963245     -0.73919244250835
  H   -2.04655809205336     -0.20129827784486      1.41141844353064
  H   -2.31074947191137      2.31097390787388      1.35399313898322
  H   -1.10366643039674      2.40980513888936     -0.02910618649259
