18
Coordinates from ORCA-job orca
  O   -1.89604615985610      1.55265050055622      1.08673940806424
  C   -1.39968207103163      0.32372053629242      0.67371966955674
  C   -2.14413637020941     -0.16135136126988     -0.57080351367176
  F   -2.04824825875352      0.82838364496665     -1.53693973158711
  O   -0.01989990610757      0.45862307365891      0.38951045615538
  C   0.75863257204098     -0.70379470785434      0.56714914796199
  C   2.04803619575075     -0.58527288952330     -0.21088667714160
  C   2.17922427260252      0.29782147678953     -1.37412398596798
  O   2.76798999203253      0.63523536217607     -0.11111782084090
  H   -1.86232395447174      2.14177036890843      0.32119802925509
  H   -1.55992660907228     -0.38057958112259      1.50317330053749
  H   -1.71357366848922     -1.08541709292773     -0.97224707477724
  H   -3.20244997792393     -0.32488812805352     -0.33875222394610
  H   0.97920320723550     -0.85516431188444      1.63617873818251
  H   0.23921103327977     -1.60830693939185      0.21011761704586
  H   2.66345798800636     -1.48630807427690     -0.16325987074886
  H   2.88331847879298      0.04499219765678     -2.16514173041820
  H   1.32721223617401      0.90788492529953     -1.66254173765953
