22
Coordinates from ORCA-job orca
  O   2.17586422469068      0.66393102183804      1.58831139059191
  C   2.70609984502847      0.13239333665445      0.38226102829853
  C   1.70560397844321     -0.85621219504915     -0.17835668319942
  O   0.59579094958420     -0.13358697519028     -0.69549986870587
  C   -0.61177750184657     -0.85354925498385     -0.75103781065102
  C   -1.64514010739592      0.04181945441205     -1.43804753542724
  C   -2.05601014059426      1.16873440745785     -0.48701527604443
  O   -2.47029477432853      0.62254712975588      0.76192340304351
  C   -1.43828814646295     -0.13002095728034      1.33880865476192
  O   -1.06588864819939     -1.23991527556421      0.53434882127852
  H   2.71426976351578      1.41225099536272      1.86028887262957
  H   3.65925992716320     -0.38993943052749      0.55939021795030
  H   2.88460672776459      0.92155263706344     -0.36202823745448
  H   1.38540065864828     -1.53667266053408      0.61841881107460
  H   2.17678225751932     -1.44617412474921     -0.97918929324782
  H   -0.47157854259440     -1.80049053822010     -1.29002551257970
  H   -1.22942976083527      0.44228125351813     -2.36670490009503
  H   -2.51962260417442     -0.56957391814741     -1.67814710111593
  H   -2.90441622426382      1.73316840262862     -0.88035834997826
  H   -1.21690374231826      1.86361583542953     -0.33645586847820
  H   -1.81886567545067     -0.54520379948618      2.27269352073530
  H   -0.55546346389327      0.49904565561158      1.52642071661322
