17
Coordinates from ORCA-job orca
  O   3.03527893008422      1.16603550550776      0.77670328299860
  C   2.04617588964655      0.67143840107220     -0.11481325070589
  C   1.09908633176380     -0.32684343071029      0.55294399241555
  C   0.08118243185360     -0.92061508660369     -0.41463718840620
  O   -0.79953615633081      0.05105755327673     -0.98528207209587
  O   -1.68081495356213      0.52424365061881      0.07540731552559
  C   -2.93677612509743      0.02019525903264     -0.18952548975222
  F   -3.02924764218285     -1.31545913048733      0.11958966072689
  H   2.60825016580857      1.76767659474476      1.39476515435564
  H   2.59722576667321      0.17774085767247     -0.92345069086608
  H   1.46773033128262      1.48725766492581     -0.56896619019036
  H   1.68526721916985     -1.14292079951414      0.99119338573762
  H   0.56454374954220      0.15813600466946      1.37779785528925
  H   -0.50748564116662     -1.71456684286448      0.05580562248151
  H   0.57349389527793     -1.33525320505985     -1.30341759997992
  H   -3.20219324602605      0.14167987114042     -1.24523178902016
  H   -3.60218094673668      0.59019713257874      0.47049100148606
