21
Coordinates from ORCA-job orca
  C   -2.61171030851782      0.39191189651265      1.41728818781031
  C   -1.83619595094290     -0.76787248718890      0.76924658746259
  C   -0.35189880085317     -0.53456065961048      0.77301949281913
  C   0.48988427483846     -0.42095958940985     -0.26138824774568
  C   0.08682962580527     -0.54191093686208     -1.70937731670792
  C   1.96257996037300     -0.16327900492351     -0.02082433129596
  C   2.44334019061474      1.22120314695764     -0.48854025725873
  H   -2.46394768502236      1.32128368970619      0.85904869520773
  H   -3.68505593349296      0.18067592305538      1.45006685161680
  H   -2.27360238866593      0.56529533951494      2.44418632378307
  H   -2.21126685561946     -0.93472842739575     -0.24432896987437
  H   -2.05305176563081     -1.68835859192831      1.32925274563625
  H   0.07631327413309     -0.43255619858842      1.77173690117691
  H   0.28411981979040      0.38729624637459     -2.25645249248965
  H   0.67347966207873     -1.32501321071273     -2.20611147699667
  H   -0.96896154831365     -0.78093535177626     -1.84085149513234
  H   2.55394531939953     -0.93276196166355     -0.53721724199389
  H   2.17712274984570     -0.27412305336004      1.04717340901800
  H   1.89189451608195      2.01654102377854      0.02253433228535
  H   3.50781798384972      1.35403577858443     -0.27214749224500
  H   2.30836486024845      1.35881642893553     -1.56517620507594
