17
Coordinates from ORCA-job orca
  C   2.95589300025251     -0.72594334347318      0.06778444297099
  C   2.01601549645616      0.46823112592589      0.16191682420586
  O   0.71096338907336      0.13134383569323      0.61239750787710
  O   0.10661749785691     -0.68004598800577     -0.43558229965315
  C   -1.11051149383285     -0.09578973677198     -0.75229649425335
  O   -2.05172737574003     -0.35360069992344      0.25285377315549
  C   -3.27792812104852      0.30224095163670      0.02302695922787
  H   2.61867278710522     -1.42805184973885     -0.69746217490490
  H   3.96280368780860     -0.38721289828640     -0.19651609190043
  H   3.00552632295543     -1.25189997064433      1.02478046271480
  H   1.95753078327543      1.00791652097421     -0.79328466510178
  H   2.35470865301350      1.17425855118571      0.92938041136204
  H   -1.40106502434020     -0.57617871912949     -1.70253142196394
  H   -0.99935445114550      0.99096519912859     -0.90909829058685
  H   -3.93427671970950      0.06504225769983      0.86148709385078
  H   -3.15419798200690      1.39500366414762     -0.03211542145894
  H   -3.75967244997364     -0.03627790041835     -0.90793361554158
