19
Coordinates from ORCA-job orca
  C   3.02813314903027     -0.32528677132538      0.30711629339419
  C   1.70572715924581      0.26948179369578     -0.18337643635320
  C   0.48495188593319     -0.45142522448147      0.39297376090079
  C   -0.83504454755723      0.15912129835259     -0.04848739283678
  O   -0.91926317099463      1.47243127864361      0.47508535306564
  O   -1.86120699155105     -0.67042837185255      0.43562373479497
  C   -3.15731972565675     -0.28270593806814      0.03506196438621
  H   3.11710479390186     -1.38168399500725      0.03174248536024
  H   3.88508867017705      0.20270914738028     -0.12179970000629
  H   3.10950174493915     -0.26052881421275      1.39716488224349
  H   1.65018760612819      1.32939727920287      0.08513346084382
  H   1.67079139800823      0.22541229610082     -1.28014300800200
  H   0.50646451614716     -0.42560745798528      1.48852608681558
  H   0.48384883522069     -1.50570545132462      0.09651769954555
  H   -0.90177245512363      0.20449065118614     -1.15170085883618
  H   -1.43059513249280      2.02200643567061     -0.12490912913137
  H   -3.84832381730754     -1.05341160100809      0.38110345976750
  H   -3.23616538480933     -0.20605670137548     -1.06161504151523
  H   -3.45210753323862      0.67778914640831      0.47836738556306
