20
Coordinates from ORCA-job orca
  O   -3.27267949507280      1.20437272922663      0.31621818625039
  C   -3.00139198229267      0.11068018088166     -0.53398581813580
  C   -1.90636938754619     -0.78087703528060      0.04597404380479
  O   -0.73078432986197     -0.03143546742362      0.32832978433616
  C   0.11089036333548      0.22178717810879     -0.78399145316058
  O   1.34731214614910      0.64759467109155     -0.33440897159457
  C   2.11212384571261     -0.35883709019367      0.31350159144770
  C   3.39707730374508      0.25602177205483      0.81600420324015
  F   3.16087513789416      1.04590792121561      1.92087451897847
  H   -2.41828190705745      1.53122399719994      0.62600832011653
  H   -3.92634417789669     -0.46745660679199     -0.63457457853050
  H   -2.71889533706360      0.44641508280655     -1.54598774386876
  H   -1.68696373837718     -1.62010542663790     -0.63196832324222
  H   -2.23554626702010     -1.18444063716318      1.00788959062330
  H   -0.28294251421795      1.03307384844787     -1.40852203702645
  H   0.18993346795757     -0.70190856362980     -1.38990339899628
  H   1.55520939785757     -0.78784648563922      1.15466672915103
  H   2.35273403824088     -1.16798491835905     -0.39609427972245
  H   4.10024959135352     -0.53859104637713      1.09686128073584
  H   3.85379184416061      0.87317689646274      0.03310635559324
