7
Coordinates from ORCA-job orca
  C   -1.47338581337200      0.11929886671944      0.57407146329150
  N   -0.19094881042967     -0.40759934617134      0.33958414888987
  C   0.68378212015651      0.08197824799476     -0.40492043694549
  C   1.97069534569893     -0.25232826479018     -0.75368885568936
  O   2.95759196816114     -0.07705006928770     -1.34590145459726
  H   -2.24215580863263     -0.44566449136670      0.01352144123794
  O   -1.70558000158227      0.98136505690173      1.37667969381280
