6
Coordinates from ORCA-job orca
  C   -1.07040309720253      0.00182437924981      0.00665920259227
  C   0.21271361783966     -0.04922293681135     -0.22031863688661
  P   1.79313618386753     -0.14637101087951     -0.65349533929544
  H   -1.62972533690140     -0.87860694154956      0.31426464153118
  H   -1.62908579925808      0.92973153336766     -0.09092896806022
  H   2.32336343165482      0.14264497662294      0.64381910011881
