16
Coordinates from ORCA-job orca
  C   2.31289458093707      0.58581912162986      0.36358326284316
  C   2.03076411357933     -0.51382597920495     -0.32401370177731
  C   0.68969870548035     -0.89999167367781     -0.88025357583848
  O   -0.33659231170352      0.06824562685058     -0.70041219440792
  C   -1.18573862574922     -0.11960753834617      0.37133134040991
  C   -2.36911857012208      0.81177556888727      0.22740698623543
  F   -0.53069679082567      0.17315469459507      1.56512917434143
  H   3.32050286737594      0.78266586095821      0.71236403072437
  H   1.54871430028183      1.31269397916391      0.60809687406824
  H   2.81613457401922     -1.23470269560343     -0.55037985401412
  H   0.78256352850768     -1.05182160092640     -1.96399109899468
  H   0.37307500977776     -1.86725332486318     -0.45765162590110
  H   -1.48645584786498     -1.17610467337847      0.45228110187386
  H   -2.00972487434702      1.83956144970860      0.13973127887111
  H   -2.94158476698242      0.55810795764316     -0.66753967038102
  H   -3.01443389236426      0.73128322656373      1.10431867194713
