13
Coordinates from ORCA-job orca
  C   -1.66400482673949      0.48450323110590     -0.42246896156407
  C   -0.70043220169686     -0.68388563246405     -0.20362049052276
  C   0.71015556407586     -0.23372138217175      0.13201965458492
  F   1.48635578291367     -1.33194368794772      0.46444950270623
  O   1.24083236810878      0.36538776061728     -1.00320177142527
  O   2.48884365911241      0.99111558500820     -0.63245300369383
  H   -1.72542769271198      1.12114193385884      0.46590828206072
  H   -2.67061614698583      0.11636579919139     -0.63632086832374
  H   -1.34349408059985      1.10773194928509     -1.26033570153152
  H   -1.03274113439723     -1.31371588490102      0.62730334614749
  H   -0.64775395098705     -1.32325130430826     -1.09067108717554
  H   0.75898638600877      0.45789365329049      0.98160639558481
  H   3.09929527389881      0.24237797943560     -0.71998029684743
