23
Coordinates from ORCA-job orca
  C   3.93673018227950     -0.42988326116574      0.07039991865640
  C   2.61587502794960      0.29194446216957      0.34652245831902
  C   1.52877049060565     -0.10648105795584     -0.63816947469637
  O   0.33752989261644      0.60951462998434     -0.31045504691023
  C   -0.68657748914555      0.41695154189582     -1.20494573910422
  O   -1.42911052858086     -0.79378119898085     -1.11406804808236
  C   -2.06572634495881      0.44584391633117     -0.72048217715175
  C   -2.41846910674880      0.59969545846345      0.73795136582275
  C   -3.61537204986982     -0.27303965555662      1.13174422461310
  H   4.70430767973468     -0.13231265928344      0.78965764131080
  H   4.31554134092664     -0.20101597699120     -0.93121896296868
  H   3.82070281324800     -1.51635232814967      0.14067922570444
  H   2.75514287780733      1.37734909542629      0.29378813750464
  H   2.26612614343775      0.07011202885170      1.36067458869646
  H   1.83348754683516      0.13122330334565     -1.67002032918972
  H   1.33242960504467     -1.18657602317023     -0.59152615682311
  H   -0.44228018200967      0.70953541997799     -2.23018553113965
  H   -2.83852253964407      0.77178442968186     -1.42050769871276
  H   -2.64387396461637      1.65797628568794      0.92255684316522
  H   -1.54405796498316      0.34922678962150      1.34268098089289
  H   -3.39509418492962     -1.32916087685954      0.95225709935816
  H   -4.50761619315729     -0.01371022428815      0.55197650398604
  H   -3.85994205184139     -0.15198209903601      2.19069017674892
