11
Coordinates from ORCA-job orca
  C   1.29719707275173      0.33867746360357     -0.62423304905235
  C   -0.04411351955017      0.16319929351557      0.01646852608146
  C   -0.97991136842048      1.02779200085472      0.43637442019099
  S   -2.18071815852168     -0.14892293516285      1.03697610165475
  C   -0.73407275621505     -1.13112647072606      0.37929136444166
  H   1.98177386560255      0.91082201469334      0.01183442304974
  H   1.76489684234153     -0.63060353290146     -0.81890138343007
  H   1.22645431804336      0.86634099462051     -1.58190357605121
  H   -1.05970396618420      2.10698506434737      0.44432342127276
  H   -1.01833550933088     -1.77380990907609     -0.45808192159768
  H   -0.25346682051671     -1.72935398376862      1.15785167343995
