20
Coordinates from ORCA-job orca
  C   3.03587176675092     -0.28014882868021      0.93444024277659
  O   2.43317833342386      0.76699538363652      0.20908516116267
  C   1.34896488079490      0.36053959487838     -0.60612393934358
  C   0.05516250265034      0.11756448959471      0.17592021916893
  C   -1.12899733057136     -0.20184734010266     -0.74136104796632
  O   -0.91008965747513     -1.35630578477838     -1.50299448764195
  O   -2.30891603927813     -0.38660358476485      0.01724146569905
  C   -3.04199081743095      0.79109545774473      0.27642877552083
  H   2.36975227982718     -0.70935493734467      1.69726802972904
  H   3.91003483139378      0.13747826495945      1.43905327201050
  H   3.36673975028513     -1.09456901364197      0.27064729882287
  H   1.19582479464250      1.17804551266166     -1.31994595972829
  H   1.61085762761793     -0.53639609751856     -1.18645917455203
  H   -0.17457579163826      1.00944533552631      0.76987815358958
  H   0.16513631809557     -0.71755751623344      0.87833705427618
  H   -1.27772558638406      0.60544746155440     -1.47481647357343
  H   -0.88475801624554     -2.10478894265086     -0.89406691626288
  H   -3.95852416410945      0.49416086246064      0.78999643776210
  H   -2.49525082939223      1.49417179591095      0.92182416773014
  H   -3.31069385295699      1.31244888678785     -0.65435127917997
