17
Coordinates from ORCA-job orca
  N   0.94482197630997      1.33963179751748      1.37351507171621
  C   0.76164742672906      1.88304636164780      0.25490108067457
  C   0.26845603975791      0.54061734237423      0.22138495177083
  C   -1.22805618676611      0.24680322073429      0.36290697781230
  C   -1.84424090923040     -0.29849291426382     -0.88720969828831
  C   -2.55768938584556     -1.40584424069572     -0.86108007829843
  O   -3.17574267661389     -2.38497042199547     -0.85325272870222
  O   0.93070187182962      2.98579518497381     -0.43365965416967
  H   1.35852639946595      3.65273667434942      0.12597572563101
  C   1.10023686991346     -0.54593343963901     -0.41607161976640
  F   -1.82741850259222      1.41289538429293      0.74442229189431
  F   -1.41669103383580     -0.64191786457271      1.37987148364676
  H   -1.70015464120282      0.20378049625080     -1.83443930079240
  O   1.37124970582814     -0.64343593103834     -1.56956555774161
  C   2.74303826213865     -1.96571772401872      0.46217093994659
  F   2.77366152902244     -2.89503840754418      1.38413498906227
  O   1.49765325509161     -1.48395351837278      0.54599312560421
