20
Coordinates from ORCA-job orca
  C   -3.17555502582338      0.46613459893400      0.01318093851361
  C   -2.18147624755383     -0.65988177769966      0.28447904390555
  O   -1.02708139668191     -0.21913969339071      1.00432568110115
  C   -0.04046184421079      0.36343625942336      0.21276801677088
  C   1.24385993315381      0.59320141457324      1.01655546644695
  C   1.83163826848878     -0.53798152476642      0.14394170201459
  C   3.06124378657015     -0.24579677392421     -0.68964333835311
  O   0.61959252476995     -0.57340369670435     -0.65954865659549
  H   -2.75872603459675      1.22947222814019     -0.64975501787288
  H   -3.47152186908838      0.94885447775271      0.94849928783793
  H   -4.07322474793325      0.06517291681786     -0.46821038529536
  H   -2.64225731868691     -1.42045795386782      0.92105723587175
  H   -1.87130940287608     -1.15368849735030     -0.64420507051206
  H   -0.44045969931323      1.20080196421005     -0.37447060713467
  H   1.13896151276045      0.38199329938227      2.08062690870699
  H   1.70922411570789      1.56952264871942      0.87230549614532
  H   1.95520815215626     -1.48172976947949      0.69037728653488
  H   2.95138620504239      0.70174992374249     -1.22505649465419
  H   3.22044769933394     -1.03971705468672     -1.42546041463216
  H   3.95051238878089     -0.18854298982593     -0.05285707879968
