18
Coordinates from ORCA-job orca
  C   2.05642921599343     -1.30571378119541     -0.89660810437765
  C   1.16861634555716     -0.39177485698890     -1.28188653068635
  C   0.80282815582276      0.84644368820514     -0.54591055900684
  C   1.02247467929311      1.02247807709045      0.93015115667398
  C   -0.39014328441860      0.91137682116552      0.40323427216265
  C   -1.19775745620705     -0.30388326087073      0.70089204231928
  C   -2.64499915637650     -0.35523696320805      0.46198339973127
  O   -2.13076068494197     -0.20270061309282      1.78692770704950
  H   2.60952776881019     -1.21112392429329      0.03247475122876
  H   2.26721250484177     -2.18087206400748     -1.50126988589298
  H   0.65639191137422     -0.52655184996314     -2.23448293080289
  H   0.91352891510096      1.74655790293388     -1.14802653255518
  H   1.40083824176973      0.17409054059581      1.49039004322345
  H   1.36628320283005      1.98299200636584      1.29632806773184
  H   -0.97234185564186      1.82797650196710      0.37151426903325
  H   -0.64821531253237     -1.24477857518580      0.67294197290450
  H   -3.12876847270594     -1.30826095322204      0.25076530457611
  H   -3.15114571856909      0.51898030370391      0.05293755668732
