19
Coordinates from ORCA-job orca
  C   2.58379855416441      0.26961259289081     -1.24620509932814
  O   1.94759203980074      0.77466282672163     -0.09305717996806
  C   1.55164297670018     -0.22052531056781      0.83743957910145
  C   0.23790463771477     -0.91296367837875      0.46679566058440
  C   -0.92764181723376      0.06075625670845      0.42249508864088
  O   -2.09565894938876     -0.66118179826040      0.02463230520939
  C   -3.21570277229786      0.11912120849621     -0.11416549538039
  F   -3.66181498040489      0.58687705031252      1.11032309385091
  H   3.49251471346372     -0.29661196383962     -0.98878969569714
  H   2.86549457311789      1.12812610464379     -1.85977067490657
  H   1.93113712944625     -0.38463461807013     -1.84207738747485
  H   2.34982866762799     -0.96872876456219      0.95930727365011
  H   1.44108772324612      0.29976104997835      1.79559931668676
  H   0.32515067218949     -1.41332218964088     -0.50374565552377
  H   0.02928751732365     -1.69619450212934      1.20472096200103
  H   -1.09427338872503      0.51698711328918      1.40718648849093
  H   -0.73013576345775      0.87105742469145     -0.29393707398042
  H   -3.03001251472767      1.00628263677284     -0.74077453864861
  H   -4.00019801855948     -0.50998143905614     -0.54597696730792
