17
Coordinates from ORCA-job orca
  P   2.41955425557925     -0.59014952417112      0.57151377632061
  C   0.75495350386072      0.22631394051744      0.31951423469046
  C   -0.39197068030240     -0.53578682206096      1.03588074404812
  C   -1.64040727427180     -0.39966253142736      0.11547371534366
  C   -1.19826231069759      0.49747495115197     -1.05983801985341
  C   0.31595913565923      0.26422952159203     -1.15659185996816
  H   3.24636516531529      0.48100591089742      0.12469504613307
  H   2.60311120746539     -0.25189978332543      1.94351423076369
  H   0.79252148469001      1.25363843371478      0.69463268690892
  H   -0.56354051875635     -0.13176945711427      2.03708234669645
  H   -0.13202278891546     -1.59181985037171      1.16972018928678
  H   -1.94142795160486     -1.38422975013650     -0.25516428495103
  H   -2.50315977436116      0.01150671913259      0.64624710061486
  H   -1.38994253763149      1.55123804345234     -0.82582596227227
  H   -1.72870994797728      0.27251804126853     -1.98941282049651
  H   0.51787730628847     -0.70306717601471     -1.63528954469882
  H   0.83910072566003      1.03046033289495     -1.73615057856643
