25
Coordinates from ORCA-job orca
  C   -4.28264885903135     -0.72253002822135      0.39827228331133
  C   -3.13527739375306     -0.17317192844024     -0.45210152063475
  C   -1.83027919319310     -0.02958488754591      0.33542223871440
  C   -0.69407354200011      0.53184430597154     -0.50575406456606
  O   0.46433727172514      0.62264001954509      0.30015435527174
  C   1.57802296585361      1.15611274087078     -0.38531492215061
  O   2.68706175498778      1.13129407373745      0.43979093536710
  C   3.22948594468062     -0.17242669531448      0.67518911996606
  C   4.26095888314035     -0.55505933633713     -0.38018004496683
  H   -4.49149950391637     -0.06735803828370      1.25066707404891
  H   -5.20442070054200     -0.81412669888324     -0.18409160386983
  H   -4.04113233086645     -1.71366260890474      0.79693100509132
  H   -3.42218041680208      0.80207728719708     -0.86658519146413
  H   -2.97174565355810     -0.83100566232078     -1.31568462240380
  H   -1.52222584636840     -1.00289602407406      0.73627171637358
  H   -1.98130380866034      0.62794266797814      1.19979832678607
  H   -0.96647973410696      1.52620130253111     -0.90041306155733
  H   -0.50456191904062     -0.11467730325010     -1.38072692677790
  H   1.40096757677054      2.21031260267279     -0.64612653796013
  H   1.73647493058114      0.58313357320321     -1.32023982682809
  H   3.69516563706518     -0.12145543567782      1.66355341348253
  H   2.41857149152527     -0.90751403212406      0.73153762111480
  H   4.69901892156823     -1.53137613886097     -0.14760009325133
  H   5.06522043769163      0.18502689177857     -0.41592149506806
  H   3.81254408624946     -0.61973964724717     -1.37621017802901
