19
Coordinates from ORCA-job orca
  C   1.79859694011358     -1.33713576409819     -0.50300512495844
  C   0.74483297483548     -0.77628492281427      0.46214243085110
  C   0.06686447058739      0.47495009305460     -0.07174597016342
  C   0.90667838093932      1.73646775536623     -0.03444931058780
  O   -0.66941931006837      0.29665500277724     -1.30131355774771
  C   -1.40289635999829      0.62051863637528     -0.11283884949755
  C   -2.40846672197352     -0.38769861745081      0.38129873501208
  H   2.23986588552229     -2.25512348846430     -0.10442939662667
  H   2.61397607665022     -0.62853694793373     -0.67509759669886
  H   1.34155929005248     -1.56780389321316     -1.46895288036086
  H   -0.00040605601559     -1.54944770301288      0.66307834604431
  H   1.21007275651427     -0.53506086247062      1.42586880058690
  H   0.37199879003165      2.56562651160010     -0.50299297744919
  H   1.85087985832599      1.59881490503784     -0.56986153741931
  H   1.14386107700183      2.01175298252606      0.99871051267680
  H   -1.77520986456134      1.64854714490964     -0.10190416625072
  H   -2.04381661242875     -1.41053492919093      0.27843867140459
  H   -2.65354109546708     -0.20048055513905      1.43230375023191
  H   -3.33543248006156     -0.30522434785906     -0.19524987904716
