20
Coordinates from ORCA-job orca
  C   3.77838655943224      0.04048610233360      0.26868063635859
  C   2.42764148148756      0.55525980266613     -0.20298656635215
  O   1.67398650279638     -0.58927127402867     -0.58032967636785
  O   0.39752161583095     -0.10000355425541     -1.06602524755029
  C   -0.59863724822036     -0.75077052421214     -0.30137126201186
  C   -1.93819543100818     -0.28190975902109     -0.87485894511608
  O   -3.01953943872308     -0.89402590796906     -0.19086594121033
  C   -3.47428159324620     -0.16479670579634      0.90738574911110
  F   -4.38634995192415     -0.93476575114522      1.54886990492097
  H   4.28398485902887     -0.50786685597665     -0.53007305665098
  H   3.66265451434133     -0.62577013532056      1.12745272679029
  H   4.41035369615518      0.88168237378917      0.56566162535126
  H   2.53529264916806      1.22678921768783     -1.06449157065584
  H   1.90774637943097      1.10294958486159      0.59511434996168
  H   -0.50752475287734     -0.48718840409765      0.76138640424582
  H   -0.51499674086368     -1.83996451484286     -0.39579597904270
  H   -2.01242600814149     -0.58008370473337     -1.92346241100690
  H   -2.00418539101077      0.81452908835296     -0.83604776102046
  H   -3.96344902740689      0.76943453013889      0.58262362705239
  H   -2.65798267424938      0.07255539156885      1.60913339319336
