16
Coordinates from ORCA-job orca
  C   -2.47061341123617     -0.08219537081995      0.19630223440110
  C   -1.49818015551158     -1.00355046347865     -0.50135301726323
  C   -0.19329696746124     -0.79013699309823     -0.67244676927039
  C   0.57107750128824      0.41683320643860     -0.20030672642386
  C   1.86351905380762      0.06831733223990      0.54533268946145
  O   2.73571722240529     -0.46769368906180     -0.43825874368912
  F   3.90704561910877     -0.86831583354305      0.28458482731631
  H   -3.48777143790699     -0.47667906372038      0.14560725381641
  H   -2.22483196956503      0.04255954761241      1.25720824526441
  H   -2.48496347139626      0.91619009935636     -0.25348953259639
  H   -1.91390651974290     -1.92416145147114     -0.90373518777086
  H   0.39452589689729     -1.53468111197212     -1.20334457979765
  H   0.83369733717999      1.05954767583003     -1.05171810842315
  H   -0.03383774765931      1.02869654338306      0.47550604395034
  H   1.68463433773549     -0.67880617945591      1.32680807685531
  H   2.31718471205681      0.96047575176089      0.99330229416931
