18
Coordinates from ORCA-job orca
  O   -3.01798272061093      1.32249585135341      0.37086219215742
  C   -2.29496321359448      0.34408087396381     -0.28178680615646
  F   -2.38265782608888     -0.85998427921726      0.41482412014405
  C   -0.84128212987784      0.79093640332263     -0.32933135399069
  O   -0.04453416652491     -0.12581648320890     -1.05456462498270
  C   0.55053112152065     -1.16547175451055     -0.29667626601416
  C   1.93578424662797     -0.80627725706362      0.19797097625177
  C   2.74868167617686      0.23435687638940     -0.43543182906958
  O   2.08960578858430      0.47352666949063      0.81591945575819
  H   -3.95768008253308      1.12851836777360      0.28906400126265
  H   -2.67897572195970      0.12698156750249     -1.28879625494654
  H   -0.47603065115595      0.94641037560017      0.69096005676910
  H   -0.79773874274200      1.74918962009870     -0.85512094792983
  H   0.63031328855847     -2.03844369029921     -0.95598472767516
  H   -0.08584376529682     -1.45262509522859      0.54795032759701
  H   2.44796814115619     -1.62150479560574      0.71405925030793
  H   3.83469315849930      0.17672196441551     -0.38369174892594
  H   2.34011259926087      0.77690578522351     -1.28411082055703
