22
Coordinates from ORCA-job orca
  C   -3.53024814834744      0.61167896081006     -0.31829187828033
  C   -2.29651402901908      0.01867914484245     -1.00031069442709
  C   -1.23764989771632     -0.41833355632766      0.00074720973621
  O   -0.14802147512225     -0.97434272114269     -0.71170817444009
  C   0.90255272680708     -1.45400163122773      0.09690250496314
  C   1.84851227572456     -0.37237975880745      0.59786994342355
  O   2.59348040150125      0.12799345978195     -0.50943190779909
  C   3.49852073246643      1.10657368709996     -0.18194695390731
  F   2.86511365913906      2.27491845988713      0.20449790086619
  H   -3.27401402485590      1.49443213619837      0.27751602952602
  H   -4.00443822413982     -0.11326977316751      0.35235071884624
  H   -4.27874474226630      0.91753834905651     -1.05450378404225
  H   -1.84777832661551      0.74905833156727     -1.68249330048464
  H   -2.57550568583267     -0.84754512646746     -1.61060977963892
  H   -0.91889721520865      0.44239519635553      0.61055599862542
  H   -1.65140686910830     -1.16776105815761      0.69863102299594
  H   1.47289649510594     -2.15497544510248     -0.52107031238156
  H   0.51015153766292     -2.00677144008018      0.96652903591213
  H   2.53382525286378     -0.80634332108484      1.34434178720309
  H   1.30139655810730      0.44648462732339      1.07955338630431
  H   4.14856852645700      0.80929528739514      0.65718716733851
  H   4.08820047239692      1.31667819124785     -1.07927592033949
