9
Coordinates from ORCA-job orca
  N   0.91087729666516      0.49304821344784      0.74554962784497
  C   0.15045135740831      0.66059824934620     -0.52915140716748
  C   0.54188018336580     -0.65408584193172     -0.13697698674155
  N   -0.85458500227125     -0.34810548110171     -0.31198646257453
  O   -1.60083597461666     -0.20128075563753      0.92638575485946
  H   1.89250127278174      0.72403787430257      0.53973347647137
  H   0.29308883342751      1.33366373224488     -1.36001425469811
  H   1.12819919790524     -1.47310221555329     -0.52308989314647
  H   -2.46157716466585     -0.53477377511724      0.64955114515234
