24
Coordinates from ORCA-job orca
  C   -0.81096443979837      2.14484465719689     -0.04956385047800
  C   -1.32319604883177      0.74630438808788     -0.14883911909388
  C   -0.60371490466077     -0.40238656663293     -0.31136307076076
  C   0.82823014180962     -0.74660295825146     -0.20071564077435
  N   1.55581530092439      2.11357786613934     -0.15622964605912
  C   -1.58161679177294     -1.48265017548619     -0.36830236434483
  O   -1.41914874935485     -2.68540251764042     -0.34249245259402
  C   -2.96862486949965     -0.80732707188759     -0.37612052054764
  O   -3.86490276004145     -1.29730039200881      0.53384696437337
  H   -0.55971492990405      2.39657412525921      0.98873158055790
  O   0.31380093580117      2.27477152677122     -0.89147940874998
  H   -1.58176094381806      2.83725900592406     -0.40209774971928
  H   0.84350748142786     -1.83198101206519     -0.16994540917251
  N   1.92074629946302     -0.19456918916028     -1.14271026802572
  N   1.66977218316103     -0.11037834201662      0.90619442824036
  N   2.12903798797064      0.91079437963032     -0.09410004250590
  H   2.17601356364451      2.71874595745187     -0.68614529669713
  O   -2.65067325368298      0.60622731780212     -0.12280509221798
  H   -3.42147333677322     -0.81258186060902     -1.37263817941270
  H   -3.39540840465072     -1.81928700012072      1.19650708137293
  C   2.88234205697026     -0.95608160681315      0.88903277237180
  C   3.07937133213109     -1.02780181374654     -0.77298203239604
  O   3.98768555165313     -0.44211689985710      0.16543848719853
  O   2.79487659783211     -2.13263081796689      0.10665982943494
