15
Coordinates from ORCA-job orca
  N   3.70499507777727      1.49576083014596      0.63590547920621
  C   2.35626393358515      1.27835984316397      0.71355383053216
  N   1.56194016047458      1.94489426068985      1.61480513432887
  N   0.34763943797866      1.56010441957977      1.39378360467494
  N   -2.73212190877071     -1.09505479525002     -1.07522725496113
  C   -3.23237171259363     -2.31519157239890     -0.62086068270284
  C   -1.64663706667164     -0.48837881101880     -0.57096429967466
  C   -0.67502633223989      0.06159946278704     -0.12507050746461
  H   4.11574963169456      1.86092364780448      1.48149644194912
  H   4.23655164252053      0.75893277732194      0.19908664204266
  N   1.67200248275114      0.47266046938155     -0.07862822659458
  H   -3.22904458341128     -0.64476759106295     -1.83234183726641
  O   -2.75579051001283     -2.96439828097359      0.26931351483281
  H   -4.13176078197920     -2.60154544055393     -1.19737324134065
  N   0.40761252889729      0.67610078038363      0.37741640243812
