11
Coordinates from ORCA-job orca
  C   2.54546785163878     -0.15393795732771     -0.13321141279458
  O   3.48729562361776      0.52028458714133     -0.08512797467988
  C   -0.39087858903752     -0.43211367393177      0.11388957413186
  C   -0.22418286356819      0.99611631059359      0.41224294999487
  C   -1.84538076892958     -0.67947388295599      0.20847500327533
  N   1.76282722443923     -1.10148566160336     -0.26113463192999
  N   0.45597633239326     -1.36112590186722     -0.18780421616314
  O   0.76445391093550      1.67611446383761      0.45188114586746
  N   -1.59256540561533      1.54185427783847      0.67751232123535
  N   -2.45741782070675      0.65084396723848      0.57848825167300
  O   -2.50559549516716     -1.65707652896344      0.04421198938971
