16
Coordinates from ORCA-job orca
  C   1.78236180989558      0.26461556468706      0.83353504182056
  N   1.70701141567142      0.46653651829039     -0.61783486593494
  N   0.51950339195903      0.17259155620323     -1.24888181608940
  O   0.05446107930209     -1.22174963757178     -1.11937868768189
  C   -0.90013168039762     -1.40434363286387     -0.12857050064730
  C   -1.77118641695939     -0.41900742844833      0.12516464130173
  O   -2.80232283714808     -0.54634267595365      1.00031750332150
  N   -1.62965349495811      0.84693089308568     -0.44384458602828
  C   -0.50264298206103      1.09866913520708     -0.99421764843575
  H   1.65693824046271     -0.78436033864546      1.12783879906878
  H   1.01016338427392      0.86411482291260      1.32098482452549
  H   2.75908692285250      0.61854348182396      1.17332792091320
  H   2.45499646458217     -0.00611809152800     -1.11068715266706
  H   -0.88563289077940     -2.38253456832789      0.33295278397122
  H   -3.20586687992437      0.32781036651767      1.06649954060543
  H   -0.24708452677142      2.10464303461130     -1.31720479804327
