21
Coordinates from ORCA-job orca
  C   -2.04653165904213      0.82904873965795      1.07714366709371
  C   -2.11379839365426     -0.01565283100338     -0.19539328541531
  C   -0.90209595872967      0.18246061743887     -1.15077209791084
  C   0.37265599388756     -0.30631249170698     -0.57556668946249
  C   1.41487906700696      0.38105310304625     -0.02442960385108
  C   1.59703883694974      1.82630485000210      0.14164128490876
  C   2.35847117426347     -0.70174075585781      0.33976182425512
  C   1.95107968423950     -1.92998529405498      0.05575166279351
  C   0.64526932108390     -1.89428137960682     -0.56994627902753
  H   -1.96274312561949      1.89404040317584      0.84310579244651
  H   -1.18488897072386      0.55959082932200      1.69590076376363
  H   -2.94517672556616      0.68217701642821      1.68333268922533
  H   -3.01063232123045      0.24410226374094     -0.76765993312948
  H   -2.20078698685839     -1.07886649691595      0.04980266885459
  H   -0.80687702367322      1.23920043985656     -1.40790038225654
  H   -1.10048487039429     -0.39796577929862     -2.05943859696478
  H   2.58629607122513      2.12139092628348      0.55026217501267
  O   0.76496048781624      2.66467860788322     -0.13854441970740
  O   3.56177561405140     -1.09493170484906      0.88148454177868
  O   3.15401100061377     -2.50599871151190      0.58566870961029
  O   -0.13241921564575     -2.69831135202992     -1.01420549201734
