25
Coordinates from ORCA-job orca
  C   -0.74104393245270      0.97671655194364     -0.79733380756743
  C   -0.10045983713611      0.13634960586557      0.50225134040445
  C   0.61585225514214      1.05984867041669      1.43339089189930
  C   -1.30156899030836     -0.66944619631295      1.08205386482508
  C   -1.66789915661225     -1.26107588686785     -0.25114028157040
  C   -0.37384459976442     -1.60753097046952     -0.94423445801919
  C   0.64875231861584     -0.94099002020424     -0.30111423089760
  C   1.96004320323091     -0.85131546837335     -0.88463201848328
  C   3.03157890768987     -0.21978554748700     -0.37517427155018
  O   -2.18893330427947      1.10688821296031     -0.57440856160199
  C   -1.09717474754991      0.01289110632474     -2.09955588909118
  H   -0.26500953945050      1.94198936917662     -0.96398531539784
  C   0.39724557611161      1.17138470986284      2.74113336909318
  H   1.35617252487778      1.70496345821112      0.96621397132243
  H   -0.33652422200755      0.56499670466410      3.26109761598366
  H   -0.97311836025093     -1.39314218681796      1.83095984345560
  H   -2.07859907854320     -0.02562146525452      1.48869162346053
  O   -2.99409395153799     -1.31454540816433     -0.85271029251268
  C   -2.21417191137221     -0.20770771308227     -1.12524200410230
  O   -0.46011855574086     -1.25396246200741     -2.31216667256702
  H   2.07504924259390     -1.41199429490868     -1.81117553560279
  H   -1.23179908855322      0.54089230261843     -3.04200567187691
  H   3.00281281764658      0.29930023602663      0.57422639756458
  H   3.98469622607029     -0.23914752925639     -0.89112851026203
  H   0.95215620358074      1.88004522113581      3.34598860309402
