15
Coordinates from ORCA-job orca
  C   -3.20588090561824     -0.07816305906222      0.00777944847024
  C   -1.76335893456640     -0.07425906231841      0.06233605907812
  C   -0.91010860777518     -0.63094288876785      1.00666137722688
  C   0.36940504803879     -0.31525329333716      0.53411997737658
  C   0.23962670229355      0.39531872918450     -0.63495118367986
  C   1.53302213007360      0.72269925989411     -1.12716765661828
  C   2.35812952932136      0.16383033480782     -0.18390728624440
  O   1.70069144994280     -0.47191389998722      0.83572991168485
  O   -1.05157136400827      0.55961672493462     -0.95044691869265
  O   -3.88988235092824      0.42792986454961     -0.85942499404468
  H   -3.65537708930810     -0.61406882891139      0.87384327982929
  H   3.96195506271611     -0.32520404750165      0.67363729529946
  H   -1.21503799450052     -1.17480073638422      1.88648755193907
  H   1.84041717794064      1.26446698574299     -2.00431534964610
  O   3.68797114637812      0.15074291715647     -0.12038251197850
