11
Coordinates from ORCA-job orca
  N   0.48218915297229     -1.08048390628632     -1.34047819496671
  C   1.18165331805284      0.07664147148674     -1.16278832955449
  N   0.72995475980741      1.46870669564664      2.05636214697559
  N   0.82547083963266      2.23642142655594     -0.04705112592642
  C   0.95744393798990      0.93514533609361      0.01057832620318
  N   0.89594445479803      0.47315229227380      1.31624227576581
  C   2.14518030070331      0.54828054732506     -1.95515860953462
  C   -0.14345782430538     -2.07071880723880     -1.48478499366800
  N   -4.17474076737811     -2.14541747893085      0.78524583950880
  N   -3.59064745657475     -3.05559579587997      0.58781342593941
  O   0.69101028430186      2.61386621895414      1.23401923925753
