13
Coordinates from ORCA-job orca
  N   -2.47967410921379     -0.48244772735814     -0.02552169748902
  O   -2.14568439895742      0.64776807356796      0.52046048102809
  C   1.32747201134100     -1.00217305225995     -1.39325782781082
  N   0.46833970916356     -0.42338064995385     -0.43329152976138
  C   0.81252986048186      0.58662105926633      0.25027964021535
  O   0.13333434884257      1.15398696419219      1.24255617335893
  N   2.10257119542627      1.28435427884006     -0.05519341907054
  H   -1.72549345651728     -0.90609238042861     -0.56568723745943
  H   -2.99329344782835     -1.11054367967187      0.58760080774980
  O   0.92260880492109     -1.35063953335507     -2.46958781834585
  H   2.36103434134261     -1.17876128031207     -1.04761973148408
  O   -0.98322625644006      0.39855245456754      1.65045898405072
  O   2.19948439743794      2.38275547290547      0.40902117501823
