15
Coordinates from ORCA-job orca
  N   0.67442787452239      0.59340202586016      2.00465348059615
  C   0.26500328585461      1.47206585678357      0.80006013088072
  C   -0.42767412831626      0.60388857074859     -0.24116973994858
  C   -1.64673931773962     -0.24986902180025      0.20663558335678
  N   -0.86081910764982     -1.50784064798422     -0.06189320663902
  F   -0.65065475105996      1.33429435153727     -1.36007156925929
  C   1.49725843785444     -0.96249658782262     -0.89877980599447
  N   0.24606328565004     -0.65403833110356     -0.45673907001513
  O   1.59162929009713      1.06726286524830      2.60710822912355
  O   0.39108058293583      2.65360557063806      0.80092242075756
  H   -2.48382862414906     -0.12972112108810     -0.48185539903113
  H   -1.96594277048586     -0.12852876890494      1.24102350609813
  H   -0.60774552442385     -1.91974694034522      0.83746586987338
  H   1.63903798208091     -2.05292591688500     -1.01320961679106
  O   2.33890348482909     -0.11935090488204     -1.11969881300758
