12
Coordinates from ORCA-job orca
  F   0.39849161104122     -1.40015852023466     -0.17930509469576
  C   0.46343599842721     -0.11763117906949      0.20295207440925
  C   -0.62599757579542      0.67623369847436      0.11515432226862
  N   -1.86802903557217      0.34246404036729     -0.38646502815309
  O   -2.29060640884147     -0.98924429042282     -0.17172227967545
  N   2.86406716094373     -0.12447112246567      0.90157785820077
  F   2.85040841473084     -1.48709490039544      0.57116484384645
  C   1.71395475942266      0.40679268910606      0.69650530284991
  H   -0.52346430597449      1.72231027702146      0.38076988332346
  H   -2.61763709164367      0.94734495316450     -0.07670560920379
  H   -2.07267922848983     -1.44003965764938     -0.99724518477071
  H   1.70805470175139      1.46349401210378      0.95563591160034
