12
Coordinates from ORCA-job orca
  C   -1.76160114469727     -0.91108326234591     -0.13829763730404
  C   -0.35522846983755     -0.48458007284545     -0.10169485976227
  N   0.52113362259198     -1.40604550473697     -0.36777994254591
  O   1.80571706104604     -1.06642944976005     -0.34417880407182
  C   2.25413342843796      0.30197066704461     -0.02970361975089
  O   3.43424860588038      0.43559598141790     -0.04528056454809
  N   1.29493921496852      1.23580098501489      0.23452745817073
  C   0.05099618846434      0.88523390697036      0.20980858420483
  O   -0.87745427319008      1.78143604384452      0.47019059955873
  O   -2.68133161565649     -0.14403042056255      0.09359854280600
  H   -1.92644950462576     -1.97209746029821     -0.38949885548488
  H   -1.75910311338208      1.34422958625687      0.40830909872760
