15
Coordinates from ORCA-job orca
  C   2.10926000000000      0.12792500000000     -0.36419600000000
  N   0.71406300000000     -0.06768200000000      0.00476900000000
  C   0.01420900000000      0.91382100000000      0.81040600000000
  C   -1.47747700000000      0.68959000000000      1.03877200000000
  N   -2.34320300000000      0.29241600000000      0.11348100000000
  C   -1.94879500000000      0.26174000000000     -1.26814500000000
  C   -2.29161700000000      0.08012700000000     -0.05217500000000
  C   -1.89184900000000     -0.70907700000000      0.88144800000000
  O   2.85121600000000     -1.02532200000000     -0.27548300000000
  H   2.43275900000000      0.89257600000000     -1.10019700000000
  O   2.96085800000000     -0.09533700000000      0.69077800000000
  N   -0.02811600000000     -1.12157400000000     -0.59301200000000
  O   0.60957600000000      1.90241900000000      1.31499300000000
  O   -0.81694800000000     -0.52640000000000     -1.61021800000000
  O   -0.89393800000000     -1.61522100000000      0.40878000000000
