16
Coordinates from ORCA-job orca
  C   2.35002032328431     -0.15107049638451      0.34012117024377
  N   1.10589140715974      0.05028514451688      0.80875306453346
  C   -1.98366745336683     -2.25504259295861     -0.30931999811701
  N   -1.94043508572519     -1.07975755242906     -0.59729423088473
  O   -2.30136481135179      2.21673313708701      0.74120362112061
  N   -2.63846546589539      1.78826598362016     -0.53195101625577
  N   4.26304701047741     -0.96680657116081     -0.29186605713423
  C   -1.08154008000601      0.01052472926229     -0.50838323510064
  C   0.06497229591863      0.02019860343496      0.13969021554128
  C   3.68487096464200     -0.13954730132244      0.82552093557872
  C   4.44625517068871      0.46938275405508     -0.38691343485714
  C   3.13172064730301     -0.17736904600441     -0.86939266916031
  O   -2.13945895084696     -3.38684896630576     -0.07557324301141
  H   -2.18048565000042      1.44346715178119      1.31893221389177
  O   -1.47842092983008      1.14556336740972     -1.15983944528460
  H   -3.30294039245116      1.01202065539832     -0.43413589110376
