14
Coordinates from ORCA-job orca
  C   -0.86139758496095      0.09554766779136     -1.61138317545916
  C   -1.85599226488881      0.35187867244589     -2.45634102824580
  O   1.43828394126921     -1.31891690791412      0.42721698377165
  C   0.62310581459461     -0.49801870809738      1.40576450703708
  N   0.01675435596854      0.63829918070600      0.77318841422182
  C   -0.62281849581435      2.09752770182947      0.48622855223131
  C   0.77903153921324     -1.37214174984245     -0.68945311668453
  C   -0.12591528982375     -1.13779626514552     -1.47878457933722
  H   1.79977071115090     -0.82825904216677      2.86526131038082
  O   -2.68639068563136      0.59875912226930     -3.22514924538265
  H   -0.18226024437157     -1.16776063336443      1.73019427859571
  O   1.46664365199970     -0.06987956637783      2.37072287396400
  N   0.72777631098461      1.62014785698258     -0.08852247843127
  C   -0.51659175969004      0.99061267088391     -0.50894629666176
