17
Coordinates from ORCA-job orca
  O   -2.23997171511494      1.74754745604069      0.01764197792493
  C   -3.12220678875147      0.71861319462072      0.35624232524033
  C   -2.30740095596322     -0.39333827044158      0.79331286069894
  C   -1.16081871140271     -0.77473707663694      0.82672072168002
  C   0.12189416524637     -0.30002138587580      0.40122402556080
  C   1.24820220021379     -1.19446358369549      0.15516295771419
  C   2.58433916452580     -1.28363803315521     -0.36521362809557
  C   3.93824521060592     -0.79061822857563      0.04794339329932
  N   1.66350722840790     -2.36346325700950      0.29065546622583
  O   -1.26749396704451      1.23648517019844     -1.01044015797518
  O   -4.23589603691242      1.18057767227478      0.99600995603013
  O   -4.27244382421686      0.56268626429120     -0.38349711928093
  N   0.37435991406724      1.11120752814941      0.74247421112545
  N   0.00070142257877      0.83230071069451     -0.60368035049033
  C   3.18517423804099     -1.26264852437728     -1.73805107228361
  O   4.11572594571733     -0.35395783264498     -1.25585398078852
  H   1.37408151000202      1.32746719614267      0.72934841341419
