16
Coordinates from ORCA-job orca
  O   3.10969786810367      0.29747869789753      1.27114187308442
  C   2.23664262661928      1.10065840609876      1.08210831555365
  N   1.15858341957929      0.92871538714825      0.21186407475591
  N   -2.18906468647916     -2.10157040535204     -0.90265192944718
  C   -1.06227681956513     -1.30865182323885     -1.11365410215488
  C   -0.08604136988890     -1.06413200372922     -0.23040545357053
  N   1.06268446155960     -0.28582229094986     -0.52967872128862
  C   0.22386633380203      1.88649584672723      0.04738292635078
  C   -0.62339620537929      2.71803367594512     -0.14910608615151
  H   2.16615627450381      2.08772953561180      1.57482741277923
  H   -2.13515959688831     -2.70603337302657     -0.09426055862306
  H   -2.49995649332222     -2.61504906416562     -1.71524949028383
  H   -1.03075035731813     -0.83735290385940     -2.09340357707736
  H   -0.08195477768902     -1.50041062253703      0.76442591048846
  H   1.12188849932725     -0.05443507632244     -1.51631738590660
  H   -1.37091917696477      3.45434601375234     -0.31514020850887
