21
Coordinates from ORCA-job orca
  N   1.56639818363905     -1.76213104788771     -0.23981413338824
  C   2.23707301090108     -0.42754274880371     -0.41132796755763
  C   1.21787818592604      0.69020341882133     -0.20717436973576
  C   -1.72417328491579     -1.13614093194845      0.17787467542008
  C   -1.20014818895182      0.30424177012584      0.10273592895410
  C   -0.10985490018036      0.52041364586441     -0.97509770933821
  N   -0.55628930895777      0.67363120419547      1.33980798451376
  C   0.80936236707344      0.75758462851240      1.27185866112260
  O   1.57067964482328      0.85191051637980      2.20905087538772
  O   2.32565279706038     -2.68900817949222     -0.31103792491425
  H   2.67287736088336     -0.41576755215519     -1.41659635425503
  H   3.04901794461951     -0.36282572619220      0.32000676354837
  H   -1.94204677356784     -1.59966897945365     -0.81125196378698
  O   -1.99070127102571     -1.68980003168225      1.21428914335308
  N   -2.36138951922006      1.16616357579016     -0.17739469405096
  H   -0.35652477157415      1.42201251109770     -1.53903334728145
  H   -0.08840453753870     -0.32078639186559     -1.67295584341843
  H   -0.98313426281353      0.42420803946028      2.22172598301326
  H   -2.71876695833117      0.98592713780017     -1.11226388158366
  H   1.70182845837474      1.63833056717199     -0.45563866553940
  H   -3.11933217622397      0.96904457426143      0.47223683953703
