22
Coordinates from ORCA-job orca
  C   0.95515440606170     -0.33340625258933      1.01246616999488
  C   -0.10789225118029     -0.73650143798702      0.03906438697380
  C   -0.45130480832114     -2.11063224998296     -0.35238889402062
  C   -0.71374170425445      0.38375974022521     -0.39510006021986
  C   -1.91502491387248      0.63598245445893     -1.24092524845270
  F   -1.53796453006429      1.23728777075002     -2.40161659803854
  C   -2.34214975934226      2.47947216843590      0.29651432503896
  O   -2.78249787988854      1.49761156395648     -0.53643327198600
  O   0.30671508745207     -3.00204134606888      0.31950978561216
  N   0.82318676725009      1.18030703137162      1.08664949217976
  H   0.93587304582859     -0.85700920888909      1.96952780364073
  C   2.37117304310063     -0.07366703407981      0.45923892371377
  O   -1.30410369194402     -2.41784259509123     -1.15214200012029
  N   -0.10560896532323      1.53628846539286      0.09266925463656
  H   -2.47500384019850     -0.27173356544137     -1.45883559976566
  O   2.16140304365310      1.30436001842036      0.46591986365109
  O   -1.02416187471081      2.50647959699350      0.65347699394547
  O   -3.08105061411060      3.29490908485284      0.74281874733572
  H   0.03401461767093     -3.88715273659539      0.03403081503051
  O   2.80612806988930     -0.62834273235369     -0.75376614771142
  O   3.94941545924889     -1.21029344572617     -0.04694460487605
  O   3.49744029305531     -0.52783629005279      1.16626586343774
