17
Coordinates from ORCA-job orca
  O   4.29243556992929      0.01371609532964     -0.10677089362897
  O   3.14617042084511     -0.81225228900977     -0.31717035545942
  N   -1.80133235025238      1.54759702048607      0.18376093947982
  N   -0.67723077551277      0.73550809036863      0.52213982788890
  C   -0.54014318706111     -0.49257369495107     -0.13940185319912
  C   -1.58926332756078     -1.30126364570142     -0.43971114849554
  C   2.01581303717733     -0.11887265643786     -0.19511799430741
  C   0.79095287776552     -1.03082708524303     -0.45476525752949
  N   -3.07134181998919      1.17475192150049      0.33840033879046
  H   3.86935978557954      0.88422006413672      0.06759253932444
  H   -1.69172806593723      2.44522125646473      0.64079507629510
  H   0.15427550143171      1.31250966917621      0.41211724076145
  H   -1.38329080984813     -2.26888530894825     -0.88389110058687
  O   -2.89303020811351     -1.12099317871461     -0.26796090008217
  O   2.00728212112365      1.07357196672199      0.06430306511520
  O   1.00016626490497     -2.13389718739339     -0.91930215859210
  N   -3.62909503448205      0.09246796221493      0.13120463422573
