21
Coordinates from ORCA-job orca
  C   3.13899808265052     -2.10165355547072      0.78812329398758
  C   2.29291456636918     -1.25958748139370      0.15101970277215
  N   1.21051395146343     -1.35512361730150     -0.48419313222827
  C   -2.91023174026007      0.14124562839614      0.62595514385447
  C   -1.70441196464939     -0.40785353246592     -0.05465251688591
  N   -2.00000340641598     -1.50887784365972     -0.65871723999247
  N   -0.49159788592866      0.23475593056511     -0.06687346425391
  C   0.59342474229924     -0.11454687132059     -1.00271296322510
  N   1.50630669314194      0.98805382262556     -1.14773494612273
  O   -3.90657315570287     -0.73342188281724      0.35417133122343
  O   -3.05944198354245      1.13293472540570      1.29384638917102
  O   -3.30829326828971     -1.77532045771719     -0.50171369225115
  C   -0.03290062345035      0.93119019870542      1.11414591641814
  O   0.05899645785618     -0.40800941451847     -2.24210268496903
  C   1.45554856063818      1.96984853020484     -0.34438404879513
  H   -0.88357897891966      1.24706817986238      1.71267195103048
  O   4.09214071668642     -2.39871802030142      1.39225988678606
  H   0.65528180195636      0.30877958139141      1.70405242982206
  H   0.53072686616383      0.14981691406271     -2.87174144844977
  O   0.68329067270530      2.11214910481896      0.74194249891559
  H   2.07888989522854      2.84727006092824     -0.50336240680753
