10
Coordinates from ORCA-job orca
  C   1.35774656020862      0.37954950738770      0.10103978075705
  N   0.81303454127985     -0.89489278694930      0.02659229564113
  N   -0.90722900745725      1.03137014046695      0.63187796274885
  C   -1.35307889255918     -0.20072003050660      0.01038389357846
  H   -2.08931842737109     -0.79668439753423      0.54861916771093
  O   2.52762023721952      0.62502899043528      0.15011585559988
  H   1.42892066035770     -1.56867980118719     -0.41145704108924
  O   -0.42720487712991     -0.93276865638493     -0.69832542663282
  O   0.41996346242054      1.37721624022552      0.20311698379853
  O   -1.77045325696881      0.98058179404680     -0.56196247211277
