16
Coordinates from ORCA-job orca
  C   -1.34759045079472      1.12373754338371      1.18029898904825
  C   -0.45736405610677      1.22262793606962      0.02413215660926
  N   0.77635189944630      1.55634312387193      0.10610447469207
  N   0.65781469850513     -0.89711629611078     -0.44893200794998
  C   0.54183103212579     -2.17472896427990     -0.39436585614205
  N   -0.37853123429801     -2.67553716316789      0.54778089564775
  C   -1.20801521083526     -1.87005703583328      0.98320182489634
  N   -2.07347423454956     -1.07863374299894      1.33460963182569
  N   -1.60560028632284      0.08555857091146      2.12658531396541
  N   -2.47505914805025      1.35203518373879      1.66262447286512
  H   -0.93346869333322      0.89015412394242     -0.89882049880457
  H   2.07833532489004      2.76181031515181     -1.34072812184428
  N   1.50733396363056      1.05050023511320     -1.01215670499049
  N   2.21083124092132      1.82557624184571     -1.72885502175970
  N   1.57822681474399     -0.27182094082329     -1.19148675450804
  H   1.12837834002749     -2.90045013081453     -0.94999179355080
