17
Coordinates from ORCA-job orca
  F   0.72332097081677     -1.31097212857795      1.78717459839469
  C   0.71084407584200     -0.75032497858536      0.55762713957249
  C   2.13818035665490     -0.22674420129017      0.26326517938410
  O   2.52851788014365     -0.01298014628201     -0.84887055536258
  C   -0.39483058648762      0.38205801619900      0.49567339469011
  N   -0.26568441668815      1.30176381220800      1.69144698656963
  C   -1.72592378308520     -0.38678111822088      0.45061616515699
  C   -1.74345286678322     -0.76463076223499     -1.01729095835340
  O   -2.48993499891086     -0.64161537192487      1.33013841699878
  H   -0.00747755532881      2.03754443124523     -1.07529237811868
  O   0.37014530740795     -1.78518820393852     -0.38753542915156
  H   2.75072187838413     -0.08981448873766      1.17634182997845
  C   -0.40484776443125      1.05041583853374     -0.88837255915703
  O   0.63364137167666      2.08092533171175      1.55081730029873
  C   -1.81639400166238      0.51024782134156     -1.89188892507920
  C   -0.50389782462069     -0.02070767286480     -1.84939700340996
  C   -0.50292704292788     -1.37319617858206     -1.34445320241157
