17
Coordinates from ORCA-job orca
  C   1.55366074633435     -0.46808462166269     -1.37159641250184
  H   0.92052407201255     -1.33339553719104     -1.59621107777085
  N   -0.57459094586055      1.66039412246345     -0.60036406971427
  C   -0.21439010151442      0.54527410152638      0.25248203582067
  C   -0.88723397357810      0.32462495310342      1.58601417764968
  C   -1.27428448810436     -0.44987969219281      0.60486504071446
  C   -2.15598381529289     -1.53027935365947      0.17390156502509
  C   2.08312953447855      0.20899918712803      0.95226993968334
  C   1.19806820710781      0.09489189178552     -0.01011389888542
  H   1.37774006496575      0.28029561161355     -2.14976954822669
  H   2.59899364864884     -0.78058028847141     -1.42078744987412
  H   -1.52830436374062      1.96338450822978     -0.43454073336833
  H   0.04632627400333      2.44911271684858     -0.44871223880458
  H   -1.00977406798359      0.64020202116710      2.61190444229625
  H   -2.82276963657318     -1.91930572965756      0.97237975787915
  O   -2.16862354032262     -1.99283219864508     -0.94436681878302
  O   2.85751438541914      0.30717830761426      1.82264328886049
