15
Coordinates from ORCA-job orca
  C   2.22013346487885      0.37718838632568     -0.30706995266926
  C   0.90263268887397     -0.25132696997408     -0.20039118250174
  N   -0.09320633666176      0.04224097530225      0.79775699425332
  C   -0.98377339337680     -0.92540255921108      0.10006769766920
  N   -1.39401106555750     -2.08110336982986      0.98468759004710
  C   0.20055810690708     -1.23857528421815     -0.79520929791993
  N   -0.58963472513657      1.36495530580886      0.96380636301647
  C   -0.78506835610001      2.11126044150035     -0.14136424720678
  N   -1.01798677445551      2.70249735496477     -1.11385550206454
  O   2.57718855246884      1.25187968814644      0.45105766926860
  H   2.86073515181134      0.00515246746956     -1.13097288717089
  H   -1.86015457677467     -0.48326223259725     -0.38030490995877
  O   -2.33833347550761     -2.66620955231050      0.53088560385960
  H   0.41558886096775     -2.03899220931896     -1.48539942653501
  H   -0.11466912233741      1.82969955794198      1.72630548791263
