19
Coordinates from ORCA-job orca
  C   2.21646190595403     -1.10066628684888      0.11516238659515
  C   1.01811625501009     -0.88853182400644     -0.39340812982404
  C   0.61600767518885      0.44938989998183     -0.96478748801005
  C   -0.17381946860174      1.26400437341546      0.03365885543538
  C   -1.38326485628205      0.61059651008961      0.62714364908430
  C   -1.94094864281125     -0.61484008488501     -0.09995522172134
  C   -1.17715248660203     -1.93875150393417     -0.06165740064093
  O   -1.73489881682389     -2.97622964183888      0.15370207310633
  O   0.14945694018910     -1.98203829263551     -0.38796584105112
  N   3.38908189065534     -1.32400959058387      0.39268254236252
  H   0.04580226741863      0.27567266135718     -1.88710666385474
  H   1.51680367822464      0.99427818298107     -1.25565722839516
  C   0.15944087920301      2.49572101860029      0.42453387981954
  O   -1.95667645462201      1.04770653686695      1.60131451414535
  H   -2.92423142154073     -0.82844124023273      0.31489800737256
  H   3.65951540668591     -1.14511589193118      1.36282366124759
  H   -0.43634762733468      3.00841326698026      1.17118636908177
  H   1.01950821682645      3.01475267342650      0.01491925361626
  H   -2.06285534073765     -0.36190976680249     -1.16148721836937
