13
Coordinates from ORCA-job orca
  C   -0.43366839998361     -1.26828036255410     -0.20914549410150
  F   2.16471087201125     -0.45234364156023      1.96469876680443
  H   2.74481657714645     -0.69880407561390      0.05573412980993
  C   0.26666007080478      1.21369706217379     -0.03290364641963
  N   1.59705427337544      1.05057127185323      0.34832973660982
  O   1.02062175012146      1.08222267938162     -1.11076216539719
  C   0.67005676026897     -1.22116205045058      0.30529119634072
  C   -1.90429052039896      0.55639414456089     -0.29652278043595
  C   -1.70504172940367     -0.76852281821584     -0.57069066520763
  C   1.85606830354931     -0.43941784246152      0.63843266993856
  N   -0.92052723207989      1.28556475959063      0.35342039823135
  H   -2.49123510065752     -1.37555535956994     -0.99843988895431
  H   -2.86522562475402      1.03563523286595     -0.44744125721862
