8
Coordinates from ORCA-job orca
  H   1.20331310294433      0.59718624746189      1.26885450088587
  C   1.57598129285268      0.09821824134355      0.34796759333769
  O   2.73899042239322     -0.07583836489905      0.13105197934768
  N   -1.71928269235044     -0.47503914033387     -1.09037886466415
  C   -0.62508560711839     -0.07338276647755     -0.20114192551471
  N   0.56057644016075     -0.32326972046955     -0.56898399750622
  O   -2.78787573369591     -0.16982674215510     -0.61579794711644
  H   -0.94661822518624      0.42195224552968      0.72842866123029
