19
Coordinates from ORCA-job orca
  C   -1.98713316929989      0.23236545347972      0.34784815254241
  C   -0.97010902238100      1.29680632088837      0.68785229494495
  H   1.72095944068169      2.57067038312466      0.30902304787686
  C   1.48330302646465      1.54594646731275      0.05722099095093
  N   2.36530382998318      0.81157426352264     -0.67895150236254
  O   1.83388670115813     -0.48123665756061     -0.89920257588753
  C   0.59889387611147     -0.59705802822418     -0.10710595049989
  N   0.79426446629291     -1.46818099909610      1.00979532165175
  C   0.34833707196365      0.84735217153958      0.29353901223916
  N   -2.70842812939398      0.02002806232548     -0.83687645895845
  N   -1.78683922849014     -1.08618783595100     -0.21784173203162
  O   -3.34909865207366      0.18392622756374      0.53152230492028
  O   -1.28827943574204      2.36641384975236      1.16786297149640
  H   -0.59017892287468     -0.48956430192396     -1.90139980801708
  H   3.34301472076519      0.75567568080710     -0.40827242630736
  H   -0.34579956052234     -2.15274805732070     -1.32212106388975
  C   -0.52036074477569     -1.12025081261885     -1.01079787994748
  H   0.91511968329404     -0.99870987267376      1.89559075705406
  H   0.14314604883849     -2.23682131494725      1.08231454422488
