23
Coordinates from ORCA-job orca
  C   2.69005990061431      0.20858810191056     -0.46168364977493
  C   1.18468845559900      0.43992620724316     -0.66726802899847
  C   0.30765070425591      1.65882537013549     -0.57059674206825
  C   -0.87382322279074      1.11653513348391     -1.02398631745363
  C   -1.64457690505451      0.89459886348698      0.19685009563738
  C   -1.93173662057368     -0.40601808888377      0.47178945161417
  C   -1.02049834394209      1.78535983526183      1.22977348328373
  O   -1.40028572881132      2.08775326341207      2.31865283464520
  O   0.15824008433253      2.27728722370674      0.66086938331831
  H   3.20575646999324      1.05457321717443      0.00350145983865
  H   3.25370235032988     -0.14848069461317     -1.32797521678733
  O   2.43028550810354     -0.86002317729846      0.48155403199931
  N   0.71684078731003     -0.21382733618181     -1.90498789914299
  C   1.07275146797763     -0.47987853273337      0.63909885637702
  C   -1.88059253785099     -2.51040471968201      0.26445081953656
  C   -1.09517941231308     -1.49825532488979      1.20385067866394
  N   -2.47362741676564     -1.43024764593062     -0.29083712224528
  H   -1.14349564545029     -1.58656830317481      2.28979222562212
  H   1.10019712788015      0.32761129097914     -2.68475851078483
  O   -0.73141472960908      0.13833111717382     -1.94970702313422
  H   -3.08773528130660     -1.39049983893012     -1.09742103803246
  H   0.93654219896948      0.12325997424485      1.54761772733541
  O   0.22624778910233     -1.58844693589503      0.67142150055059
