20
Coordinates from ORCA-job orca
  C   -2.16004427488187      2.24445038484892      0.17636818070242
  C   -1.70590164075082      1.04534852263044      0.47715736814614
  C   2.61829508044147     -0.06565044439319      0.10664112139684
  C   1.67036934643701     -0.59135429000065     -0.62328439258565
  C   0.20205776537734     -0.43940717146460     -0.41082466178072
  C   -0.37104181003325     -0.85190110023850      0.95889391659426
  N   -1.75649761232945     -1.16267245425119      1.04559652424391
  C   -2.61086118490280     -0.11912370910400      0.70826313243428
  C   -0.28385840234267      0.61392429126672      0.57728109607761
  O   -2.57057891624465      3.30077318963304     -0.06865222983885
  C   3.57179073163576      0.44161612318009      0.83541041321236
  H   1.94539925523397     -1.21607917542177     -1.47177759555765
  O   -0.58124568396523     -0.63241334866719     -1.54584958149403
  H   0.29918807746510     -1.29119899679625      1.68998726135418
  H   -2.12314473211096     -2.09937962476653      1.09781443745063
  O   -3.81540042826332     -0.19192970447679      0.61853353934563
  H   0.46033995401325      1.26231921116531      1.02359858769670
  H   -0.76913741107657     -1.57293956152124     -1.64282530838142
  H   4.01581208925556      1.40589852152504      0.60226680744047
  H   3.96445779704212     -0.08027966314766      1.70436738354286
