16
Coordinates from ORCA-job orca
  O   1.60436364578475      0.34493262733417      1.70783408201324
  C   1.01095350117126     -0.02316508089027      0.71764739178226
  N   1.38797123026226      0.18295239806396     -0.58465244066679
  N   2.63172252551538      0.75670864739957     -0.88427862260322
  N   -1.93091301507738      0.90464394316016     -0.03131600022206
  C   -2.12198849200787     -0.51277111819895     -0.11130832198074
  O   -0.90880521499093     -1.23445779345920     -0.41080775221275
  C   -0.31887013453245     -0.75803326163038      0.83827192319530
  C   -1.57426156866116      0.08168592311594      1.13031524230325
  H   0.86233037879835     -0.31671473162979     -1.29203291207734
  H   2.50316341843862      1.50946339526579     -1.55172740565518
  H   3.24794828407936      0.06151178765944     -1.29460998337231
  H   -1.13530487018807      1.24486481341639     -0.56922423970555
  H   -3.05607898907980     -0.95843256847944     -0.42894009425195
  H   -0.20076312486584     -1.58537285231338      1.54340162332688
  H   -2.00146657464650      0.30218387118600      2.09832451012694
