14
Coordinates from ORCA-job orca
  O   -1.76119126786683     -0.35862472863476      2.11162753095518
  C   -1.00147165816423      1.31217882854543      0.53893624656880
  C   -1.36810742652516     -0.03688634939270      1.02854551866694
  C   -0.87469061877988     -1.07916582263738     -0.05691233536748
  N   0.05235513557945     -0.58803266932804     -1.10011985979054
  H   2.83833726589903      0.98165391920706      0.31129969706182
  C   2.26234443085503      0.16117301042890     -0.09648969862503
  C   1.01364275542704      0.34299417805675     -0.47742281256682
  N   -0.72228864539724      2.49617323988898      0.13771115426557
  C   -0.06966380457644      1.35033476726227     -0.54424239079929
  O   -0.61246380317322     -2.33453515904823      0.42093968887482
  O   -1.77809147378091     -2.02527062913396     -0.47378742015827
  O   -0.70911513843047      0.58926147625683     -1.61765036721966
  H   2.73040524893383     -0.81125306147116     -0.18243395186602
