11
Coordinates from ORCA-job orca
  N   2.40908243415963      0.26177181520225     -0.62411122246143
  C   1.28668397897245      0.05504672442472     -0.12025373653849
  C   -0.00478490961669     -0.49847151685842     -0.65051559286082
  F   -0.07807516910212     -1.43858301888189     -1.58594131926586
  N   -2.20690707237821      0.83176200250401     -0.64872685594110
  C   -0.45704168754568     -0.39040374061822      0.87544100317812
  C   -1.14151076047063      0.32584190152781     -0.21039243273126
  H   3.07363314048592      0.63810083457029      0.05343447892704
  H   -2.83716730222300      1.07016050990415      0.12205536396616
  H   -0.86355675024109     -1.07848774653414      1.60606384016228
  O   0.81964209795943      0.22326223475946      1.18294747356536
