13
Coordinates from ORCA-job orca
  F   -2.29748004748604     -0.73085857919248     -1.05062008059941
  C   -1.91592921264300      0.00335806067126      0.06685320384550
  C   -0.43029034635613      0.05355122189149      0.14427548136784
  C   0.30715703049701      1.15032648420103      0.26684345738059
  O   1.68028432806323      1.05634711026030      0.41092766052401
  C   2.32039032453342     -0.03617818894118     -0.09419731318903
  O   3.50032731707203     -0.05337702489633     -0.24634944106013
  O   1.54567052688507     -1.07706843984535     -0.47821988703750
  N   0.24367698269592     -1.19039883620697      0.17833991601479
  H   -2.33096666597358      1.01310204274222     -0.00096107157411
  H   -2.34291477063510     -0.49708872224295      0.94519077100120
  H   -0.05608218734738      2.16655175919309      0.28952776997925
  H   -0.22384227930545     -1.85826688763413     -0.43161046665300
