17
Coordinates from ORCA-job orca
  N   -1.20753520836159     -1.32424139571662     -0.96830613016534
  C   -0.89062840314321     -0.10374877695387     -0.37706405273017
  C   -1.66874501201677      0.89497666497744      0.05360208660017
  N   -0.92241106884504      2.01926488035748      0.53873529586581
  H   -1.03769938434764      2.81878513430702     -0.08308340810080
  N   0.47796148273002      1.62902974577840      0.44905693410016
  C   0.55634769820720      0.31828166607473     -0.23552145337684
  C   1.42062344797510     -0.65933164097851      0.57303872881505
  O   1.56374931571952     -1.92456103695385     -0.06392299469611
  H   -2.16886946134438     -1.61137844567097     -0.85003975158747
  H   -0.56128097498414     -2.06307364561075     -0.71850838261099
  H   -2.74956261598392      0.94332431228491      0.07765830106925
  H   0.77269935578269      1.50393772608500      1.41392871606516
  H   1.02016579781232      0.41988697407380     -1.23445337030609
  H   2.40297771304119     -0.20543219523539      0.77298101449063
  H   0.94055306799239     -0.85989900430060      1.53646595563366
  H   2.05165524976627     -1.79582096251822     -0.88456748906609
