23
Coordinates from ORCA-job orca
  C   3.12851119808194      0.32017806903250      0.44191026767594
  C   2.34377265134064      0.02956952835530     -0.84385388066039
  N   0.89547146266911     -0.02104146232981     -0.68447739214722
  C   0.33003956934561     -1.15399645096715      0.03721005486753
  C   -1.19138094622631     -1.12917482682433     -0.10234918691735
  C   -1.73766474594279      0.19388868638247      0.45164245362779
  C   -3.18387479437460      0.46306202730520      0.01555740817841
  C   -0.82186083584880      1.32338402763399      0.03270184845883
  N   0.35160920764595      1.21575213645165     -0.47226721371994
  H   2.99943576492079     -0.46993684798751      1.18801436544603
  H   2.79520465648523      1.26533724916726      0.87904760492955
  H   4.19860373307623      0.40031024366883      0.22619538364440
  H   2.66044127047489     -0.92597873588642     -1.27714653909079
  H   2.55011437578073      0.80864679812827     -1.58248968813950
  H   0.60331786363942     -1.12785321352873      1.10628120366190
  H   0.74985521483388     -2.07227851560679     -0.38515335517516
  H   -1.45212759909549     -1.21899953999735     -1.16295563129080
  H   -1.63616342936062     -1.98390273819469      0.41683129918273
  H   -1.72924050527330      0.14309410727419      1.55101647284245
  H   -3.85126090267930     -0.33530734444842      0.35530583946469
  H   -3.55252662489293      1.40616766227638      0.43126552268955
  H   -3.25758090259168      0.52593776783028     -1.07496640825199
  H   -1.19269568200861      2.34314037226486      0.12873357072336
