20
Coordinates from ORCA-job orca
  O   -1.37336507915329     -0.11849199052169     -1.86459828331436
  C   -1.19876315277351      0.69070468505607     -0.71800773532633
  C   -2.36116460210293      0.51162533113650      0.26342480815631
  N   -1.10524043718564      2.06435476060597     -1.13692961289460
  O   0.03958955132832      0.31563982898717     -0.13090761514177
  C   0.24166902496677     -1.05670583875811      0.10849008320291
  C   1.61037199928064     -1.32506841828732      0.70269259177714
  N   3.52202383557675     -0.45674742489445      1.72133821949521
  O   2.25977817765120     -0.20668015195916      1.06127081625970
  H   -1.88545949094116      0.40589731496009     -2.48910637230302
  H   -2.52540984457913     -0.54724015960133      0.46807004183605
  H   -3.27591582022437      0.91994155763216     -0.17147084557171
  H   -2.15153321477201      1.02805968549293      1.20431132545905
  H   -0.20594115801551      2.19799400013996     -1.59216239962274
  H   -1.13233245322640      2.68538971042631     -0.33493452758925
  H   0.16788551337926     -1.64906286215042     -0.80987545570643
  H   -0.48758404760985     -1.47047339634396      0.82100212425950
  O   2.04456804256400     -2.44377092696324      0.85955802405162
  H   4.19258070858853     -0.06929330554089      1.05739369547192
  H   3.62424044724833     -1.47607339941658      1.66587411750081
