18
Coordinates from ORCA-job orca
  C   2.48351825544621     -0.45139556317305      0.23746742040302
  N   1.06416847439157     -0.67768048894211      0.07597504028449
  N   0.60004055746911     -1.93889314945303     -0.05871121236110
  C   -0.71580023350707     -1.79417711381853     -0.19415255881317
  C   -1.11481850734974     -0.44188275258487     -0.14962746554316
  C   -2.50325666053726      0.11151775978504     -0.26543574288030
  C   0.07153470930000      0.25576029120809      0.02665652992736
  C   0.33638080344155      1.72040334020090      0.15089418666757
  H   2.69134766179814      0.10569125062319      1.15636325373410
  H   2.89585057768547      0.10675306798313     -0.60990328109866
  H   2.96285908724960     -1.42729114758708      0.29157138834017
  H   -1.33806641508289     -2.66983320789626     -0.31909543612967
  H   -2.78432209773505      0.70972618268611      0.60869180128147
  H   -2.62330314060611      0.75059143915706     -1.14783058383375
  H   -3.23254600457247     -0.69812629340875     -0.35158545133622
  H   -0.59963173705489      2.27900377562468      0.09475773689775
  H   0.98971088064503      2.08711815097272     -0.64975534362444
  H   0.81633478901881      1.97271345862276      1.10371971808454
