20
Coordinates from ORCA-job orca
  C   0.87161372447156     -1.24218925640335      0.04819196198290
  C   0.04102592161247     -0.31715019872852      0.88992152012635
  C   -0.33276970499782      1.04838207117747      0.44279807130931
  C   -0.49922056273249      2.18991816342412      1.41302054447286
  N   -1.35445919643578     -0.00164083205441      0.45813352559891
  O   2.99849619412288      0.37644401705208      0.26545484973626
  N   -2.50097115938117     -1.48767591374841     -0.87654192739157
  O   -1.54771978995563     -0.43162914017247     -0.90782543135964
  O   0.40260159554716     -2.50778919286629     -0.19554839744197
  O   1.51007708475391     -0.69413640349179     -1.07408936438496
  O   1.58105138600402     -2.22623213081957      0.70219785295219
  H   0.12420886167003     -0.54533560654732      1.94751161985838
  H   0.00471607257160      1.31012299211536     -0.55703149800801
  H   -1.16177605472765      2.95580552194859      0.99985663751898
  H   -0.93008542877778      1.83782467496388      2.35297774824719
  H   0.47142564080775      2.64831601259949      1.62486125772764
  C   2.58285883417792      0.09778135543148     -0.82151796837024
  H   -3.23001071746412     -1.17625731548612     -1.51592075749898
  H   -2.02434667060283     -2.27186528524974     -1.31952487762830
  H   2.99328296933597      0.43730846685551     -1.78273336744732
