15
Coordinates from ORCA-job orca
  C   -1.24219039200501     -1.21576743894755      0.88421158462127
  N   -0.80323318424565     -0.34395470741011     -0.20707825784392
  N   0.16786549209536     -1.08263875163375     -0.99345643349762
  C   1.42493799268521     -0.52328787042977     -0.66204209942914
  C   1.27684459385196      0.50460045027665      0.17600536747054
  N   -0.11190044431797      0.78918246455790      0.38514072252652
  N   -0.52224941292532      2.01383672854096     -0.23685097976914
  H   -0.55115088392162      2.72349938252398      0.48787160688043
  H   -1.93883810245007     -0.65182247571013      1.50699295143290
  H   -0.40811027468515     -1.57309822380733      1.50498012806277
  H   -1.75665184256280     -2.07583613729081      0.45114650674767
  H   -0.05630542637676     -1.00069552013397     -1.98387670847025
  H   2.33238852366736     -0.96531865760222     -1.04838225328810
  H   2.02702339642658      1.10036353827351      0.67337480338544
  H   0.16156796476386      2.30093821879264     -0.93803693882937
