15
Coordinates from ORCA-job orca
  C   -1.77279944209119     -0.56367606061510      0.00118023396454
  C   -0.30279061260859     -0.93631152514169      0.05890758224866
  C   0.54456284965781     -0.21832098181161      1.07464188396087
  C   0.45229039818078      0.30373865165591     -0.34333202313187
  C   -0.60326285221690      1.36787304435554     -0.54789709817330
  N   1.52800467574513      0.30001085558999     -1.31703196283782
  N   2.70135568238008      0.25817560575995     -0.93353076751092
  H   -2.31758685529080     -0.79754372133377      0.92023916577174
  O   -1.82086130479919      0.85933385987602     -0.18937388155356
  H   -2.27534488255599     -1.04632564288158     -0.84302232437336
  H   0.01017091299876     -1.91354683465879     -0.28880151392024
  H   1.47021130449768     -0.70940299794950      1.35776674250670
  H   0.07234296634143      0.34859606927449      1.87049924689790
  O   -0.45311621660979      2.48858451271667     -0.93105641815702
  H   2.76682237637078      0.25881516516348      0.11081013430769
