19
Coordinates from ORCA-job orca
  C   -2.05648579855845     -1.02018778993215     -0.80216261652042
  C   -1.16068854821700     -0.57867392923062      0.36063061047068
  C   -0.01747420016378      0.34452251699495     -0.04013207401009
  C   -0.36577081073030      1.71287731255950     -0.64284657888554
  C   1.12216059820788     -0.03401567897321     -0.89827005920442
  C   2.00365655205299     -0.75053250507718      0.02552473540710
  N   2.94592268285288     -1.58495251587817     -0.00898807893867
  C   1.30603088814300      0.31661565445549      0.71541716094185
  H   -1.46306295322857     -1.49076157367953     -1.59195664953641
  H   -2.60593283090794     -0.18609745742957     -1.24748113508322
  H   -2.79563244269591     -1.74916486835404     -0.45898886762915
  H   -1.75706542400522     -0.08111535293808      1.13611695993291
  H   -0.71934269203152     -1.45927327395328      0.83619358654807
  H   -0.48555414978940      2.50403913963380      0.10465746136959
  H   -1.27287445063067      1.64300123200130     -1.25560254643421
  O   0.76126857607592      2.10198130177942     -1.42967603858419
  O   1.39940013331235      0.82431422576094     -1.90072391753729
  H   3.35916532787971     -1.71063071961699      0.91556645476971
  H   1.80227854243404      1.19805628187743      1.10529859292371
