20
Coordinates from ORCA-job orca
  C   -1.91989324072490     -1.00539066769174      0.35975634028197
  C   -0.61292600652910     -0.92547511852207     -0.42978279324047
  C   0.44747325460140      0.19729096215096     -0.18834706685927
  N   0.26378532439271      1.33642388981791      0.60970424624929
  C   -0.78425025940409      2.26454795959555      0.43814343731394
  C   1.81219013020366     -0.43524230749726      0.20011605544383
  O   2.29797125539573     -0.25028620749825      1.28548911275492
  C   2.57874305440550     -1.23640871496249     -0.85668749187273
  O   2.91107495061220     -0.82274921406796     -1.91477531373741
  H   -2.50288530835832     -0.08691488444065      0.27782363488606
  F   -2.63920681037822     -2.04994468075077     -0.10348571036989
  F   -1.60372091629648     -1.23069209639787      1.65643358860071
  F   -0.01681067914431     -2.15970799535962     -0.38133950923780
  O   -0.77208329266128     -0.49099976434888     -1.75423189115857
  O   0.31424344375266      0.50838143262373     -1.60215293407368
  H   0.78329999353004      1.33288776072804      1.47568385568478
  F   -1.98342880049374      1.87207912653483      1.05074291768703
  H   -0.50309594742142      3.21641431553549      0.89374096965399
  H   -0.99369027531711      2.39938058508943     -0.62493846454132
  F   2.92321212983510     -2.43359538053836     -0.39189398346540
