16
Coordinates from ORCA-job orca
  C   0.66263235878394      0.76064944852478     -0.58765244385734
  N   1.67769261217724      0.34240797646013      0.34125328677559
  C   1.40780063005795      0.37109605878408      1.57803477091371
  O   2.28753736963084     -0.01384537371794      2.50449698903780
  N   -2.32883211790456     -0.16235267783886     -1.41161277792577
  C   -1.75293691799601     -1.14981623879554     -0.86436136768492
  O   3.51712068952853     -0.45832964124537      1.90797212880230
  H   3.30234409794171     -0.33508559579550      0.95182659318639
  H   1.07001192726903      1.51093207880030     -1.27414721668682
  H   -0.23552274878054      1.16586220740341     -0.10051181819730
  O   0.29788468287227     -0.27803108891725     -1.48206005746516
  H   0.48218072413215      0.69876672641127      2.05857438300818
  O   -3.71696044670573     -0.21200413599479     -1.44313276950595
  O   -0.40883936792443     -1.28900145325634     -0.72738192363375
  H   -4.01684894718542     -1.04419729518561     -1.03896484854549
  H   -2.24526454589697     -2.01662199563675     -0.41233392822146
