17
Coordinates from ORCA-job orca
  O   -2.65568794009702      0.48606219359449     -0.08743695844785
  C   -1.28248215085547      0.65832225718208      0.20605887283606
  N   -0.67152813621400      1.17670350747448     -1.01582105872039
  N   0.73886730315801      0.87261247337624     -1.03697260787203
  C   0.79809353651718     -0.40151333937097     -0.35757679514940
  C   -0.20195483062356     -1.45893385012563     -0.75707589676747
  C   -0.48627242546564     -0.61672082146857      0.45133144394026
  N   2.01480188440989     -0.84461417160732      0.21464794820521
  N   2.94222535568722     -0.01052207843229      0.12423301416311
  H   -3.12007630383382      0.35059796789496      0.74521065564422
  H   -1.17679668030844      1.32439879081906      1.08518352283916
  H   -0.82045723812436      2.16375926697322     -1.17862277777726
  H   1.26947771290128      1.52525053081508     -0.45211950545351
  H   -0.77830933778082     -1.27284001865164     -1.65485973723312
  H   0.11880389605493     -2.47804323573721     -0.57937267024196
  H   -0.44882065728063     -1.03822567909012      1.44794470714114
  H   3.76011801185524     -0.43629179364588      0.58567184289383
