15
Coordinates from ORCA-job orca
  F   -2.18750922557960      0.17442733667145     -1.37208070693660
  C   -1.07839067447952      0.20337284851047     -0.54788140452018
  C   -0.62019067709983     -1.24795833908317     -0.34415293570291
  N   0.75334541078745     -1.39482487442140      0.13590668747025
  C   1.52877635664830     -0.39256277171228      0.06342022034915
  C   1.19145183643483      0.97044752505208     -0.49595037155410
  N   -0.08785692637688      1.01760659806095     -1.20498992876111
  H   0.01534535280416      0.67819740787904     -2.15547621724320
  O   -1.37820931045059      0.84108810174707      0.64369463577964
  H   -1.28020115812087     -1.76105507934843      0.36796803141771
  H   -0.72233187441502     -1.78719208961638     -1.29255234796672
  H   2.54452841798768     -0.51628245538103      0.45167214187564
  H   1.17988560927227      1.69586191542368      0.32883980453571
  H   1.98680987557319      1.29441033557630     -1.17556906571337
  H   -1.84545201298555      0.22446454064164      1.21767345697010
