16
Coordinates from ORCA-job orca
  O   2.29971333099856     -0.21332513554052      0.53041232965850
  C   1.68645119232400     -0.41018735335059     -0.72334893096645
  C   0.31536140790847      0.25079165234971     -0.85268036302997
  C   -0.05539563754936      1.41525166693992      0.03587584237558
  C   -0.71239947865493      0.08055405829400      0.23391816916287
  N   -2.09988677671960     -0.21106528560585      0.05142258360930
  C   -2.64980057630899     -1.05037995264750      0.90597449288124
  C   -1.43742781912709     -1.41401902647308      1.82795144675975
  O   -0.40436050284893     -0.70843888180113      1.37137845800490
  H   1.79704386356581     -0.70159745307264      1.19391022679663
  H   1.59611150020682     -1.47770754303907     -0.97272597660651
  H   2.35434423274798      0.04090569083653     -1.46464002005393
  H   -0.08442977574881      0.24882748918662     -1.86445909935961
  H   0.67202571225789      1.69628280986616      0.78940482378350
  H   -0.66347060096927      2.22041106801193     -0.36218494410147
  H   -2.61387907208256      0.23369819604550     -0.70020903891434
