15
Coordinates from ORCA-job orca
  N   0.42805611826377      0.76785823585676      1.48381732630009
  O   -3.37209868358396      0.55571928994464     -0.68094755874532
  N   1.09889942503611      0.37886202071222     -1.67166855454365
  O   -1.88382387928159      0.62946541512318      0.07959981016771
  C   -1.14314901064288     -0.24039689875889     -0.30905336458062
  O   0.02603820579833     -2.45527982165868      1.75370441777067
  C   0.17856049924050     -1.29264027987764      1.58786826054208
  H   1.41779018923201      1.03083507689686      1.46795478907322
  C   0.20014915982905     -0.29106036257276      0.40057138652212
  O   0.40631025041501     -0.31679880387086      2.51083965489633
  H   1.31137611314495     -0.12231832141177     -2.52665717052949
  N   1.19772343811114     -0.52791729192444     -0.58225840906389
  H   1.74144526669795      1.16181823098544     -1.58125096530735
  H   -3.73774882370903      1.34915011098780     -0.25808005182375
  H   2.13047173144864     -0.62729560043185     -0.19136457067819
