18
Coordinates from ORCA-job orca
  C   2.22309155122291      1.05489296281263      0.01559888613962
  N   1.48912389283527     -0.21051794829402      0.00895915880366
  N   0.40845118481590     -0.18669738820575     -0.83259440686455
  C   -0.26741164141028     -1.47440251189079     -1.07539396437770
  C   -1.60242025513379     -0.72091315536950     -1.01402773139915
  N   -0.93684263162625      0.42121743048462     -0.29820974047762
  N   -1.03583788804169      0.24332251228437      1.10726869146885
  C   -1.34208839806196      1.32595485372933      1.83282131545647
  N   -1.58043225819592      2.25536278513537      2.48699828924221
  H   3.08922618613525      0.94567513451784      0.67357066124906
  H   2.57084781960767      1.26087847514804     -0.99831299259680
  H   1.62220379736524      1.90687543068385      0.36023813083266
  H   1.22420674903711     -0.48319063534563      0.95899428970221
  H   0.02722240018802     -1.95681778681439     -2.01038514160633
  H   -0.14137550532006     -2.19111129875888     -0.24982807232973
  H   -2.42585899687650     -1.17071877178979     -0.45703924176714
  H   -1.96337330904545     -0.37381032609598     -1.98273544196381
  H   -1.35873269749547     -0.64600076223131      1.47407631048809
