17
Coordinates from ORCA-job orca
  N   -0.80819604529512      1.71739232168510      0.56671276482880
  C   -0.62504347111359      0.39905560993546      0.15774039510879
  C   0.47077066960931     -0.20468943090242     -0.32805428938182
  C   1.85662056980585      0.34209348458739     -0.48421338114549
  O   2.17275747310470      1.34458866041868      0.48704622966429
  N   0.20759167325033     -1.56633757784937     -0.72458438260174
  H   0.21662469254531     -1.65380939436486     -1.74086958741371
  N   -1.15632203801618     -1.85161949569825     -0.30284814974391
  C   -1.78753505631098     -0.56121367709394      0.05067876563378
  H   -1.40107323161754      1.82561028128213      1.38019809546891
  H   0.06657369411257      2.21474538388116      0.68125895524461
  H   1.99268365037881      0.83955311875310     -1.45321550361549
  H   2.57797835823024     -0.48716315577425     -0.44751940859588
  H   2.11828053138675      0.92346726697721      1.35225369685837
  H   -1.04573413649077     -2.38983314866912      0.55082649512281
  H   -2.36163344219444     -0.66460155741651      0.98001442599210
  H   -2.49434289138528     -0.22723868975151     -0.72542412142444
