18
Coordinates from ORCA-job orca
  C   -3.35640720098863     -1.11550233444581      1.15477469059512
  C   -1.98664234099994     -0.94001386334453      0.69445561031393
  C   -0.85266973860112     -0.79331372559966      0.31339970965629
  C   0.50898435580295     -0.62839778517256     -0.13626887761981
  C   0.96882192053988     -1.49154922654454     -1.28297108013766
  N   1.45194478507531     -1.77664186039489      0.06444117384830
  C   1.08265893123054      0.68502405506990      0.03911124245867
  C   1.55264392868880      1.78433682152508      0.18158710132963
  C   2.12390191921062      3.11198210166743      0.35259695670548
  H   -3.46568015098557     -2.04185284629883      1.72889336971457
  H   -3.66233304294837     -0.28738175049399      1.80272044804109
  H   -4.05881163354726     -1.15895307107925      0.31553305280344
  H   0.22487401367918     -2.14124556872771     -1.73483299071684
  H   1.71316949919936     -1.08305608717978     -1.95945822053117
  H   0.91603310693461     -2.54467333159666      0.46411700425900
  H   2.27124611771504      3.34881190035490      1.41170129354899
  H   1.47136149566404      3.88186628192700     -0.07299125354034
  H   3.09690303433057      3.19055829033388     -0.14385023072870
