20
Coordinates from ORCA-job orca
  C   2.34367030660499     -0.73187925442797     -0.42507638890716
  N   0.99921020851018     -0.22972715551011     -0.14630279348351
  C   0.79973464555723      1.18983087856098     -0.25827750190981
  N   -0.57598281826230      1.54247803490783     -0.11844713014881
  C   -1.27691477376419      0.84464742984935      0.95817936194481
  C   -1.35521237620331     -0.62285482799110      0.55777448818240
  N   -2.30439494218254     -0.79426275834984     -0.54700080004924
  F   1.21858676193886      1.61338236365296     -1.51173559087910
  C   0.03802882725612     -1.15195818697216      0.20458107488868
  H   2.97729402849225      0.10173548626114     -0.72567675557552
  H   2.76300601263315     -1.22222574502397      0.45759927347497
  H   2.31152426937766     -1.46553597794457     -1.23300085537057
  H   1.47753352940588      1.71045535196367      0.44289578148158
  H   -0.66908245796403      2.54860922787682     -0.06441525051309
  H   -2.28302719270287      1.26028009633224      1.04338053586876
  H   -0.78017563462741      0.94411863270125      1.93769887591870
  H   -1.69955264364184     -1.22638878460790      1.40256934313975
  H   -2.00600952076077     -0.20851762391530     -1.32353471809853
  H   -2.26874924647452     -1.75659949207906     -0.87180207744723
  O   0.29051101680746     -2.34558669528424      0.22059212748291
