15
Coordinates from ORCA-job orca
  N   0.76994700936211     -2.11115363721868     -1.88732501462410
  C   2.35946889459155      0.91961899750227      0.71707238557556
  C   1.45460218072477      0.48782098071580      0.05560861172274
  C   0.35593026655635      0.03894915789873     -0.77469018177277
  C   -1.03692146343324      0.42550745955221     -0.18787421147929
  O   -1.10742039679727      1.80678910551298     -0.02238183811386
  N   -1.20710960708146     -0.25401692596708      1.08934549761765
  N   0.46788889013961     -1.46014789180728     -0.99944176606073
  H   3.15992085560932      1.29680887297499      1.30810442080860
  H   0.42866368786548      0.46876942877659     -1.77821340001254
  H   -1.80349447483263      0.15171651568132     -0.92352661181523
  H   -0.42799077481392      2.05752868842365      0.61941528377126
  H   -2.14250934570839     -0.06017744210440      1.44711686799057
  O   -1.28693504527798     -1.65804220945423      0.75018851427632
  O   0.01595832309570     -2.10997010048687      0.58660244211582
