16
Coordinates from ORCA-job orca
  C   -0.86498095569133      1.19454963301208     -1.30267071377025
  C   -0.00847623941469      0.46436588762875     -0.32963150540911
  O   1.29482333805953      1.02422322464658      0.00035503871964
  C   1.84377146876986     -0.26488548611622      0.02055696408140
  N   3.03150675064814     -0.64172934251536      0.13748898063728
  C   0.53142464482524     -0.93323228178549     -0.20662650282352
  C   -0.43744790083987     -0.36817400704138      0.85821413047061
  N   -1.74998524260259     -0.91504495811650      0.74975311906339
  N   -2.41937337265377     -1.08670635257872      1.78011294183262
  H   -1.79033660490236      0.63924232065025     -1.46604165395886
  H   -0.34340916185361      1.31859985754238     -2.25531710237669
  H   -1.11725059064866      2.18588948155575     -0.91380668696469
  H   3.66638541918031      0.15097816453405      0.24432880323089
  H   0.32144783017572     -1.85181604945227     -0.73327906667343
  H   -0.07560362134163     -0.11681430759245      1.86013369443732
  H   -1.88249576171029     -0.79944478437144      2.63241155950339
