18
Coordinates from ORCA-job orca
  C   -2.21949315262816     -0.23121150310388      0.15809388335016
  C   -0.75104242305081      0.08742282283496      0.45802113065410
  C   -0.18336850628042      1.07836384776269     -0.57293015082586
  N   1.24634107336990      1.28278615786855     -0.38846710868808
  C   2.14809095726962      0.30458550128494     -0.07933405147369
  O   3.34518506277862      0.50419890338673      0.03281231740992
  C   1.54486614051996     -1.05444008186298      0.18050718519484
  O   0.62091897227548     -1.58600110211294     -0.78918792072221
  C   0.10650043683153     -1.16236460526247      0.47335457478727
  H   -2.32135728319315     -0.70996495669854     -0.82102044717185
  H   -2.82947122728882      0.67739702052877      0.15712246529468
  H   -2.63442539636570     -0.91017935374419      0.90901165061960
  H   -0.67439396099673      0.53993323037343      1.45628714361915
  H   -0.68089754177446      2.04654292261543     -0.46995101505328
  H   -0.39825270500887      0.69914009837285     -1.58009695632514
  H   1.65176187671977      2.18158738911337     -0.60578288381939
  H   2.25254497678945     -1.77309739475730      0.58549042644892
  H   -0.22350729996720     -1.97470089659940      1.12228975670084
