14
Coordinates from ORCA-job orca
  N   -2.85510132999215      0.08113249503295      0.37257092265133
  C   -1.53423395616602      0.02421685481813      0.85284401147395
  O   -0.64026478725202      0.32071234255426     -0.28663376287276
  N   0.67279790201778      0.19203041401061      0.12559407515588
  O   1.14898260291639     -1.09383922372022     -0.13166869472595
  N   1.38627782979524      1.26616581250891     -0.29392010076746
  N   2.61679963651958      1.19898429717355     -0.52116173922614
  C   3.38069840936144      0.08219583998605     -0.49346196056048
  N   4.24539630477947     -0.69592249538579     -0.53922952049710
  H   -3.40176043411055      0.87218079429921      0.66998838694071
  H   -3.37535536951785     -0.77968163686741      0.40113595765330
  H   -1.26106139992985     -0.96999228285462      1.21852915874509
  H   -1.31104409337496      0.77266709877386      1.61910622265970
  H   0.92786868495349     -1.27084831032950     -1.06440195663009
