24
Coordinates from ORCA-job orca
  N   3.40939137355314      1.19471442177040     -0.04725344967832
  N   2.09820237784014      1.19100232327945     -0.49256409077926
  C   1.45728911525394      0.08086225575213     -0.47307890689858
  C   2.07758191788274     -1.23069452391312     -0.05079880527072
  N   -3.48442960776463     -0.67313172957645      0.59953002071333
  C   -2.41599932719996     -0.30716024375223     -0.32981537581139
  C   -0.99583424736401     -0.14342769263823      0.25425853414244
  C   -0.93455570152475      0.97119253795547      1.30366780523611
  C   0.01019482487443      0.10060737158303     -0.89414118244501
  H   3.87692735303057      2.00482836842566     -0.43186810988984
  H   3.93729250971792      0.35214427357488     -0.26747526890758
  H   2.52658897781860     -1.15312131101419      0.94633772955189
  H   2.87994933857876     -1.53177681308703     -0.73899496123584
  H   1.34223348013947     -2.03659406803937     -0.03793843077694
  H   -3.24050898479927     -1.52109419228242      1.10385374706689
  H   -3.61289662399137      0.04768376189018      1.30234004128033
  H   -2.70854432369569      0.62958819617470     -0.82183148132317
  H   -2.38666351561027     -1.06946573712841     -1.11840617477859
  H   -0.73768076392439     -1.09443140175236      0.74480642341619
  H   -1.60585061525471      0.76571443246424      2.14329708064608
  H   0.07468348585682      1.09020166865307      1.70536519352244
  H   -1.22575947744608      1.93232570359582      0.86387362642288
  H   -0.19541638015361      1.06996116249598     -1.35924406096548
  H   -0.14619618581781     -0.66992976443120     -1.66261890323785
