12
Coordinates from ORCA-job orca
  H   2.64361053839566      0.81667416392222     -0.91712070179637
  N   2.30509317286247     -0.08894575448881     -1.32343068320067
  N   1.31354987406598     -0.51631265166535     -0.71548051501807
  C   0.82484022465984      0.24257793313215      0.39819980380238
  N   0.24515247522136     -0.49992802189219      1.51070345520562
  C   -0.66004562811339      0.25700521403103      0.65204725407555
  N   -1.48829879634976     -0.50597747541299     -0.23380272183057
  N   -2.57357748130002      0.06103883415245     -0.46182711844021
  H   1.40339611702797      1.13313331642902      0.66587648554469
  H   0.19288858181101     -1.48435854176507      1.24099596371140
  H   -1.10519619242004      1.15173905993720      1.08358455116314
  H   -3.10141188586108     -0.56664707637967     -1.08939477321687
