17
Coordinates from ORCA-job orca
  N   -2.98822768658090     -2.24142516642894      0.31877296317715
  C   -2.19581861198075     -1.44766891321084      0.01440629425243
  N   -1.28677936596167     -0.55061017580855     -0.39442046906757
  C   -1.42789732919088      0.89484024904985     -0.06723677054132
  C   -0.06624490135288      0.79875137531571      0.67461312962152
  N   1.06147041646361      1.59850320086192      0.33828757400236
  N   2.21672303984761     -1.31214706237730     -0.45327497363049
  N   1.00035774364239     -0.74807631549328     -0.89873933257662
  N   0.04833838340431     -0.65882566108426      0.22773160597223
  H   -1.42955383558898      1.51329404810057     -0.96835368447921
  H   -2.29863511942386      1.12595675454610      0.55004469694739
  H   -0.19600240114225      0.81447812159770      1.75949404328067
  H   1.16658756247722      1.72484760414075     -0.66042625826204
  H   1.06874265768285      2.48759281559029      0.82005840109662
  H   2.73777003559083     -0.56071714299534     -0.01212299067861
  H   2.02923350175815     -2.01277251596311      0.26714983928999
  H   0.55993591035521     -1.42602221584129     -1.51598506840451
