12
Coordinates from ORCA-job orca
  H   -1.75443862704942     -3.03469104544753      1.57666047448668
  H   2.63274029777860      2.45979033119311     -3.05054487772090
  F   0.49721335308337      1.95253225957440      0.65667968905468
  N   -0.34527121938014     -0.45497913373841      0.78134793456955
  N   0.20716514305668     -0.07802391847087     -0.46004967000436
  N   0.24547671765525      1.31264353607982     -0.58463806253762
  C   1.17630246515010      1.72508753292540     -1.48241443255386
  C   1.92969233473540      2.10965621015786     -2.33368277305942
  N   -1.68548208862425     -2.01732710809709      1.67156638079082
  O   -0.95519799034978     -1.71435899405953      0.52669042146137
  O   1.07479776992728     -0.61273104855487      0.58312630675031
  F   -3.02299715598308     -1.64759762156224      1.38003660876274
