9
Coordinates from ORCA-job orca
  H   -1.12252763379799     -1.03993622262204      0.83367251077931
  F   -1.33591982497254     -0.02539049357055     -0.87761960661952
  O   1.31119208109464      0.47714378905390     -0.75926731124870
  H   2.25840328200810      0.27951435837241     -0.82078018410539
  O   1.41551294068031     -1.22979297885456      0.71396028787062
  C   0.79361692185565     -0.37994667392748      0.13295312137568
  O   -0.84755488575715      0.99921687833394      1.08688375169079
  H   -1.76296905527495      1.07070612347919      1.38117555608533
  C   -0.70975482583609     -0.15151378026482      0.33950887417189
