13
Coordinates from ORCA-job orca
  F   2.61527461260777      1.11186334282185      0.47762567153941
  N   2.37345937107532     -0.33038714987306      0.54129504348408
  N   1.01937621763879     -0.49594328049710      0.51463583441227
  C   0.30507254017004     -0.41310921138753     -0.66484860479058
  O   0.83550827800022     -0.38886016346187     -1.75459967904608
  C   -1.18566203844496     -0.38026638688758     -0.48001227242974
  C   -1.79654825198924      0.76893964666300      0.21291743577091
  O   -1.67440716722508     -0.49930103393361      0.85908679575117
  H   2.68067250155212     -0.57117362813777     -0.40659824668004
  H   0.54033155068409     -0.52273849396348      1.40204247643185
  H   -1.74893589215577     -0.89948296699206     -1.25135703786381
  H   -1.15487401560573      1.55711656787562      0.60150827059461
  H   -2.80926670630757      1.06334375777361     -0.05169568717405
