21
Coordinates from ORCA-job orca
  C   1.21008503540060      2.25924915072991      0.64357694862125
  N   -1.54757755537255     -0.09575820706707      0.50119474336935
  O   -2.29575607929106     -1.30096290689634      0.07019060104334
  C   -1.14931713102073     -2.11519751213970      0.37435122182610
  C   -0.27614270314285     -0.84551837323850      0.42035727646651
  O   0.55015589989597     -0.64229690038660      1.52654846373831
  C   0.59524879120983     -0.57701340965281     -0.83433427706840
  C   0.02345031742247     -1.09568449469384     -2.06955314624311
  C   -0.45729247671748     -1.50653938527481     -3.09021446727579
  O   2.26413890373476      2.70012291123219      1.36460936706828
  N   -0.01199430576253      2.57251260187638      0.67828933995606
  O   1.75085535831138      1.34794061989675     -0.20929364464296
  H   -1.64196463917717      0.60713641105837     -0.23441984067536
  H   -1.22133085033473     -2.59171488959226      1.36099197580196
  H   -0.94895650962912     -2.86224094939389     -0.39625479740205
  H   -0.03926961031717     -0.43283793656877      2.26233918240129
  O   0.74828463805621      0.83257901870185     -1.09556668138473
  H   1.58578365540092     -1.01302873039451     -0.65664086367118
  H   -0.87964519398757     -1.87559722394601     -3.99418452544309
  H   1.95008989335762      3.36062560806324      1.99105973588857
  H   -0.20884443803679      3.27422459768640      1.38695138762566
