16
Coordinates from ORCA-job orca
  O   0.07163447257426      2.36341800563861     -0.82215611491642
  N   0.56680157018242      1.34835441095063     -1.26936454340999
  N   0.25061333430675      0.20316186784748     -0.60732387511972
  C   1.11421763929807     -0.92229620796575     -0.86996285461739
  N   2.38138117882568     -1.02286428828268     -0.08633964275640
  N   2.71308465519478     -0.11047153903945      0.66923269653386
  N   -0.37818186520068      0.26986542335417      0.66445941018672
  C   -1.77673686891717      0.73675951824503      0.59272053118676
  C   -1.49181651301572     -0.69778890697744      0.81840349754607
  H   1.40847397419489     -0.87396530771896     -1.92057282387768
  H   0.57631450114894     -1.85686918439565     -0.69725094163707
  H   2.01630611859098      0.66497821118797      0.69388462184847
  H   -2.15468941373613      1.02235936233534     -0.38105801039365
  H   -2.06059442586790      1.38692656301531      1.41153907745031
  H   -1.55543184678855     -1.13278979591169      1.80920320496054
  H   -1.68137651079063     -1.37878013228292     -0.00541423298440
