9
Coordinates from ORCA-job orca
  C   0.82036485099659      0.31701108389225      0.33656497292332
  C   -0.63461674997227      0.46675500429816     -0.04530739003965
  O   -1.31902000205897     -0.75685680315733     -0.14464198593367
  F   1.36192954144054      1.53681922559722      0.45286043565430
  H   0.95811550244800     -1.54108593849376      0.40141308199570
  N   1.51362420576371     -0.69885198534393      0.54543617883619
  H   -1.17278158191823      0.99700547532480      0.75105884536904
  H   -0.73211001949762      1.05491989041876     -0.96514406809112
  F   -0.79550574720176     -1.37571395253617     -1.33223907071411
