10
Coordinates from ORCA-job orca
  C   -1.20358222858631     -0.02944389867058      0.68306161255093
  N   -0.67356791931850      1.17628061952453     -0.08382651747714
  C   0.32095606773389      1.00158641956088     -0.91285168042557
  H   -1.20158579597871      2.03434391971607     -0.00100894372258
  C   -0.29886638465146     -1.21388027514696     -0.33017792928188
  C   0.03544020766147     -0.88986783108064      1.04367600409502
  O   -1.56864072530476     -0.94743295143803     -0.47599032684510
  C   2.28904227609394     -0.44187874647854     -0.03790577537486
  C   0.96562922908291     -0.24843498039958     -0.76912847702025
  C   1.33517627326752     -0.44127227558715      0.88415203350142
