16
Coordinates from ORCA-job orca
  C   -1.95327202540042     -1.33803480480573     -0.85192900458312
  N   -0.73753958599993     -1.00636154177012     -1.00860798495915
  C   -0.31148296888749      0.18867947896653     -0.38906035934753
  N   1.12769370530472      0.15907419447639     -0.12736347795129
  N   1.61225678713380     -0.96345914948323      0.50646091558764
  O   2.70940798274380     -1.48854744378416     -0.23346593660341
  H   -1.42772017642606      2.76016669868107      0.33143630908304
  O   1.34021861903216      1.21618878522950      0.94582109895600
  H   -2.30760526662175     -2.24591998838326     -1.33804550925135
  O   -1.03870091528824      0.68113536387977      0.77298689686582
  O   -0.55173851190585      1.41010549093295     -1.08395752590851
  H   0.91861654831316     -1.70550990694836      0.47671928726431
  H   3.46884449710694     -1.24419534450953      0.30931401793242
  C   -0.70513215088659      1.94943994060078      0.23314378672871
  O   0.51667666185593      2.38781903149153      0.71708210646313
  H   -2.66052320007419     -0.76058180457413     -0.25096162027669
