15
Coordinates from ORCA-job orca
  O   1.54978901219388      2.39226585156515      0.52222305410319
  C   0.79188876156594      1.48145803154724      0.31581823002234
  O   -0.42458150209997      1.74935418363547     -0.22731103014633
  C   -1.43204877577334      0.75003549313332     -0.42553784812565
  C   -0.89083502816189     -0.65989471898374     -0.45053951315249
  O   0.18495954227316     -0.79197381764058     -1.42781530924586
  C   1.09981625284069     -1.06280118587297     -0.37148410174843
  C   0.05878859093367     -1.01204775980136      0.69816223508882
  C   1.12521687861560      0.06399873154663      0.65294562155088
  H   -2.18415133225135      0.84351417395315      0.36920536232748
  H   -1.90928665220713      0.99295633630874     -1.37906196936651
  H   -1.68692250488183     -1.38602719039205     -0.63803168914848
  H   1.94461187428744     -1.70942079761791     -0.57249535678342
  H   -0.15234146966555     -1.63828587690263      1.55371630380307
  H   1.92509635233068     -0.01313245447845      1.38020601082137
