5
Coordinates from ORCA-job orca
  C   -0.50497753328596      0.07713280817430     -0.00078221096946
  F   -1.29016652433184     -1.01994264447905     -0.03128500751033
  H   -0.99190653047333      1.04102347004100      0.02145226536897
  C   0.81021877698159     -0.02449479113935      0.00309499840368
  O   1.97683081110955     -0.07371984259690      0.00751995470714
