16
Coordinates from ORCA-job orca
  C   -1.94233322011792     -0.82812788857258     -0.62235258689352
  C   -1.15699971190144      0.40183841069993     -0.19582322265830
  N   -0.09879715708774      0.71881679219391     -1.16682495136297
  O   0.66653102424331     -0.09474440393337     -1.61661241155674
  O   2.27459286737483     -0.30165328689740     -0.34264462552496
  C   1.95054737794029     -1.02046145114511      0.67511469361381
  O   0.84047598769266     -1.32546750246624      1.09391445350927
  O   1.17742910747258      2.18924557987876     -0.01777478028378
  O   0.34066396410620      2.04691630433746     -1.19971807007010
  H   -2.42188566267251     -0.68768398773876     -1.59449314600912
  H   -1.28455153704062     -1.69705597727576     -0.65631725432109
  H   -2.71807853174612     -1.01469574745092      0.12350100181599
  H   -1.75325093088925      1.30813058078817     -0.09695900750835
  H   -0.60431841982015      0.18092075350977      0.73347531075892
  H   2.85728133890209     -1.38203591885941      1.21335482306770
  H   1.87269450354377      1.50605774293155     -0.18371122657674
