15
Coordinates from ORCA-job orca
  F   2.26481314936305      0.52122121097960     -1.36555740971333
  C   0.97224651630889      0.05091399621354     -1.50063121468269
  C   0.61309301298198     -0.77699024131014     -0.29280660837810
  H   1.12783988949040     -1.73828304033939     -0.27395975787518
  C   -0.78492040866246      1.58822068057477      0.36978225202150
  N   -0.27532537770729      0.92803433095043      1.48835282579881
  C   -1.50089695173575      0.34094695002972      0.66290479398677
  C   -0.69433348137979     -0.93724124979889      0.40154588167109
  C   0.45858145630262     -0.36121435281234      1.17531143470592
  H   0.92549673036691     -0.57936420894855     -2.39715993262347
  H   0.30645622389731      0.90157038276930     -1.65467211109011
  O   -0.73460209643974      2.63510301469487     -0.19439044261801
  H   -2.47567882544825      0.28055052387320      1.13736012310690
  H   1.12451367656124     -0.73393942043663      1.94113985381702
  F   -1.32728451389912     -2.11952757643951      0.50278231187289
