19
Coordinates from ORCA-job orca
  C   -1.92425151986298      0.38742353586106     -1.07793303456009
  O   -2.86687777438602     -0.14605910043607     -0.12795362754768
  C   -1.81331218212172     -0.57163491412954      0.75744437195062
  C   -0.71844586182848      0.03568090502594     -0.17633755424807
  O   0.10256915996401     -0.91593430539483     -0.82179023041102
  C   1.30180211201174     -1.21444166551767     -0.11635591591830
  C   2.20257109057455      0.01633393859634     -0.02851321619598
  C   1.39147759564486      1.19673024348015      0.43157739336169
  C   0.06041989688677      1.18414974865405      0.38674552796597
  H   -2.08892894207141      1.45412658137346     -1.27015593098777
  H   -1.91794968275531     -0.16395509206064     -2.02489810389739
  H   -1.74985811942034     -1.66349333860387      0.84465710850695
  H   -1.90929081221048     -0.12508111971994      1.75418675605009
  H   1.77508375299706     -2.03195696673673     -0.66528505401575
  H   1.06676352811554     -1.57669787729136      0.89700139986151
  H   3.02964731670754     -0.17650901625071      0.66601573976199
  H   2.66191782792414      0.22374385132439     -1.00442556428526
  H   1.91893520294881      2.06410652743900      0.81869141722159
  H   -0.52227258911829      2.02346606438696      0.75732751738689
