13
Coordinates from ORCA-job orca
  H   0.74599974717675     -1.14348830877688     -1.37581564733079
  N   0.06659303083098     -0.40375625961852     -1.19086767907738
  N   -1.08675063436623     -1.13661226142440     -0.56913604047014
  C   -0.90062122351305     -0.44239588004879      0.71218384619048
  C   -0.82747340968858      1.04399799721166      0.55585205147537
  C   0.35345136776220      0.19594182190775      0.13249369599201
  N   1.60741668987460      0.38486294779192      0.73104716010579
  N   2.64856109501778      0.19961125648200      0.07167476771830
  H   -1.93019530189035     -0.82097659527675     -1.04920946822392
  H   -1.06077262781818     -0.95153585209086      1.65501082665561
  H   -1.39320374904906      1.54386429180675     -0.22563201049693
  H   -0.66363017485837      1.61073974783157      1.46486976245300
  H   2.44062419052150     -0.08024990579544     -0.91246926499139
