16
Coordinates from ORCA-job orca
  C   2.57309207745819      0.18178641661204     -0.45455423690237
  N   1.47615406607312      0.12404062659581      0.50442769055513
  C   0.30297566782146      0.83420225945696      0.14863865199756
  C   -0.78539529784385      0.08185073438941      0.27991407082048
  C   -2.23557490709144      0.34987910934956      0.07790871490039
  O   -2.79175645200787     -0.45564697379380     -0.95105056350998
  N   -0.39534234152468     -1.24919651660490      0.69919844782307
  H   -0.48050481070293     -1.30456027958671      1.72276708354430
  O   1.00519198822242     -1.28338119350179      0.44363499575868
  H   2.93636171658120      1.21175354039999     -0.49417442104612
  H   3.38378010999232     -0.45505144190224     -0.09575026549885
  H   2.26523352727186     -0.14621343419913     -1.45653360044817
  H   0.37709109483475      1.87417227664084     -0.13238773711180
  H   -2.38476996659579      1.39331965399013     -0.21154444794365
  H   -2.78144743175082      0.19608308543573      1.02603012172520
  H   -2.46509004073794     -1.35303786328191     -0.81474950466386
