20
Coordinates from ORCA-job orca
  C   -1.42597744574191      0.12871828504942      0.00305617945326
  O   -0.15531272908583      0.77282428057630     -0.24670395937245
  C   0.96243822610772      0.05978064581634     -0.26435440310490
  O   1.23320578831735     -1.02672885402617      0.67591655293710
  O   1.33279622294993     -0.82090034269002     -1.40225973613891
  C   2.28498559709354     -1.03669455706009     -0.33512548431442
  C   -2.51947119839451      1.04754979460023      1.34229336339824
  H   3.71197464760542      1.50182435458817      0.85853329780016
  O   2.86066156242219      1.07741383964493      0.99794768464733
  H   -2.67534226471085     -1.43699231968099     -0.68968797370764
  O   -1.62506208145656     -0.06487163462959      1.38986222380145
  O   -2.39400655440182      1.14806217454654     -0.08043866152218
  H   -3.53595366726720      0.79424872089310      1.66438612360840
  C   2.43757484268945      0.51663818899593     -0.19497757556325
  H   -2.13711605141722      1.93184627368782      1.86806804473826
  H   2.98197715973362     -1.86707846546484     -0.38690003715614
  C   -1.66009388041111     -1.07837976875452     -0.86614801500829
  H   2.80525513115083      1.01702794717272     -1.09567473749724
  H   -1.54222134742558     -0.80421706288449     -1.91625987671048
  H   -0.94031195775747     -1.86007150038077     -0.62323901028831
