17
Coordinates from ORCA-job orca
  C   -0.05828113396241      2.57015877172033     -1.35835857949489
  C   -0.04319547620894      1.44257537837964     -0.94310678631503
  C   -0.01336062997365      0.08007030124408     -0.43440648561917
  C   1.33449618017339     -0.17769247324577      0.24451201719695
  C   1.56711339821253      0.44788019755816      1.60569246782855
  H   -1.06517964130037     -0.82289007519140      1.32047019777257
  C   -1.27381657656982     -0.41268102426925      0.33277443180596
  C   -1.39142843505475     -1.44580301864747     -0.79866401122110
  O   -0.20853508326456     -0.92467298772646     -1.45969886189664
  H   -0.07328586803074      3.56888640936187     -1.72499994717830
  O   1.39635418175027     -1.46619215840348      0.89846863291929
  H   2.15149883830938     -0.05028818800611     -0.47105193630665
  O   1.60006100825336     -0.79372483072637      2.20780166477245
  O   1.67997170935000      1.50343244959072      2.13069720884422
  H   -2.07199011944784      0.32477134205774      0.39236845443097
  H   -2.27534343555711     -1.35329852909570     -1.43726012943801
  H   -1.25507991667872     -2.49053056460052     -0.50523733810118
