19
Coordinates from ORCA-job orca
  C   2.10611688123876     -0.53955703179550     -0.46558900122045
  O   0.94700147562501      0.09262960532205     -0.86012012859873
  C   0.04204220364672      0.40922950055204      0.18335651770426
  O   -0.03652365734040      1.77900452213556      0.38176461677817
  N   1.20356113210207      2.21741224412180      0.97807011165011
  C   -1.36594810478464     -0.06549474605031     -0.27103089435342
  C   -1.37445394327032     -1.60672106568939     -0.42529898896648
  O   -2.19017481361642      0.41832705995671      0.73405573729175
  F   -3.48328272992164     -0.16731757568150      0.55246994596161
  H   2.56239548564124     -0.08119549186061      0.41813051905058
  F   1.84360975183404     -1.84674483193407     -0.18624802919527
  F   2.94495518299270     -0.50042252457495     -1.50235845057922
  H   0.31595547264833     -0.12201307308272      1.10145441024951
  H   0.88901216276905      2.77851799890250      1.76871368897415
  H   1.57194670019782      2.87685623124822      0.29333107173069
  F   -1.67845579774531      0.46823581904526     -1.47935138161650
  F   -1.22467081171221     -2.15545262436567      0.80530641012730
  H   -0.54392121506754     -1.92042907967871     -1.06373920338413
  F   -2.52916537523726     -2.03486493657071     -0.96291695160393
