17
Coordinates from ORCA-job orca
  C   1.83495709431629      0.27754055667497      0.46399008575365
  C   0.75174109641008     -0.10834080781359     -0.53630482816731
  N   0.16492779575946     -1.43602205464886     -0.25539294906607
  C   -1.26702575127129     -1.13937226681695     -0.26479272723732
  O   -1.42652702984013     -0.10923193804853     -1.23798829635695
  C   -0.52379770721563      0.78829657858110     -0.56959890850647
  C   -1.19469624962239      0.83963299000661      0.81171375408005
  O   -1.62471732494980     -0.53197981185911      0.95399227088615
  H   -0.53302579053994      1.11224935625196      1.63320881465595
  H   1.23774075427511     -0.07008068237508     -1.51626875286920
  H   0.38479455316782     -2.08817837575523     -0.99995182997377
  H   -1.89552677297776     -2.00362054977486     -0.46936512304808
  H   -0.42517649734420      1.72744465123693     -1.10724183259306
  H   -2.06833022938501      1.49928799453243      0.79775136546876
  F   1.50459430281817      0.04960493404134      1.73984594683962
  F   2.11494977932906      1.59400058075215      0.34227380847572
  F   2.96511897707017     -0.40122915498527      0.21412820165833
