17
Coordinates from ORCA-job orca
  C   -1.49036946738193     -0.73180794422323     -1.14689362404533
  C   -0.76894371874659      0.15436655117606     -0.17528736974733
  C   -1.21419891352457      1.35618801801085      0.32545904984150
  N   -0.26433492264611      1.83805590057218      1.19653038772486
  C   0.78682440985119      0.96379957650670      1.26114672314935
  C   0.51182654692689     -0.09796120845574      0.42467258887777
  C   1.40085359426620     -1.26397131123863      0.14002668605232
  O   2.16989296127879     -1.11367293394253     -1.06084911450703
  H   -1.70829165356002     -1.71386293077817     -0.71172001989523
  H   -0.89939648814160     -0.91377229704433     -2.05143620173704
  H   -2.44100858857673     -0.28798610690333     -1.45343525207446
  H   -2.12843276104186      1.89676991103708      0.13589996614603
  H   -0.33567734411526      2.69677370973079      1.71309636586804
  H   1.64126668884437      1.15112803198137      1.89265968520014
  H   2.10793277700614     -1.41797493741974      0.96433628731484
  H   0.79856354554046     -2.18069256884281      0.06009094224014
  H   1.83349333402063     -0.33537946016653     -1.51429810040856
