24
Coordinates from ORCA-job orca
  C   2.10062989645185     -0.36260930999047      1.05819415320435
  H   1.12023416487786      0.22425673494197     -1.96320626533697
  C   0.14986372694980     -1.48502867929333      0.28667886213951
  O   0.92675789732606     -1.55873406227907     -0.87435391208386
  H   -3.70212369170325     -0.09191267742615      1.60675832574883
  C   -3.13844973035318     -0.42877623634160      0.73415258052679
  O   -2.68639799126465      0.70005362893098     -0.01407251975562
  O   -1.98256932045735     -1.07902986839282      1.16967742060558
  N   -1.16952776247847     -0.94538831895719     -0.02453240704542
  N   2.22650721653733      0.35240118584928     -0.18380569776934
  O   0.78452062128114     -0.81020116864431      1.34876271867202
  H   -0.04202668639183     -2.51937160938206      0.59075544845061
  C   -1.35713339817249      0.46585273925908     -0.36364845896451
  C   0.44214926169250      2.05593019223622     -0.39390991217420
  H   -3.74350873337823     -1.07212427981188      0.07791000940969
  H   0.26430989502186      1.94672403742645     -1.47544758018025
  H   2.38639656916255      0.29706280992081      1.87571420347359
  H   2.51206479179018     -0.86310753844904     -1.86538447708491
  O   1.76634782565301      1.70928899150261     -0.04429829821634
  H   0.41773114440189      3.11859997407662     -0.13648840153404
  H   2.79437683952206     -1.21228641822678      1.00201271403658
  O   -0.55216603974739      1.39407305858443      0.32393835567160
  C   1.69200372758671     -0.42233745890270     -1.29064468337358
  H   -1.20998922430795      0.58666327336894     -1.44476417842011
