22
Coordinates from ORCA-job orca
  C   3.57066101416067      0.38057011554148      0.29476913357076
  O   2.37370222222279      1.17241906182360      0.24142231445816
  C   -2.14972779751447     -1.61210324844743     -0.06034378792711
  C   -1.06242825627196     -0.65478400447539     -0.45780785259492
  C   0.39146093318911     -1.15082988038292     -0.37157103103629
  C   -1.05607650383992      0.80573668453256     -0.26449044593663
  O   0.21016736568184      1.41765340598919     -0.05859611945328
  C   -2.12757705400747      1.65558365621149      0.35155673264965
  H   -3.11080168203439      1.21571606854807      0.18415320861859
  H   3.74805852570829     -0.11066839698167     -0.66461582448336
  H   3.50060856000700     -0.36739898082515      1.08781392265316
  H   4.37241747402225      1.08464572531716      0.51092566423983
  C   1.25214591350690      0.50951383990446     -0.01503387060959
  H   -2.16605651643164     -2.46771276201445     -0.74120404578558
  H   -1.96871988251054     -1.99033405949730      0.95034923246063
  O   1.22283109807122     -0.35430111754988     -1.17621541540528
  O   0.92151986240610     -0.61910083295300      0.83834616983185
  F   0.55949600197349     -2.46015392526103     -0.51680185868913
  O   -1.29662419053048      0.25795229153382     -1.54850225008231
  H   -1.95206908037977      1.76699753074951      1.42363211510462
  H   -2.10664321833017      2.64814187789608     -0.10671293367854
  H   -3.12634578909888     -1.12754504965919     -0.08695805790521
