17
Coordinates from ORCA-job orca
  C   -1.94650563832047      0.62124553863146      0.88159826646189
  C   -0.74137740170685     -0.17952513554247      0.41346988033670
  C   -0.78419534477249     -0.58911255019771     -1.06586309921872
  N   0.63655212059277     -0.68033762628144     -1.42009706048322
  O   0.41620822635850      0.63307863913779      0.49112349882112
  C   1.33333885732845      0.21425124549171     -0.52045237622223
  O   2.39176889133807     -0.53449758810966      0.02267727859763
  O   3.30116114586205      0.38662827907518      0.65120293946266
  F   -1.80570879834266      1.03490116689074      2.14582073153509
  F   -2.17007057705348      1.69834623341567      0.11687455479809
  F   -3.04047564017715     -0.16180675213604      0.82152104022212
  H   -0.66375112109662     -1.05660969922592      1.07132761875250
  H   -1.30291570041765     -1.52979945378465     -1.25032321416536
  H   -1.26384404496981      0.19977717072979     -1.65331438798968
  H   0.99190289358902     -1.62004336416163     -1.26842607017632
  H   1.72450967777049      1.12511939811736     -0.98069324572386
  H   2.92340245401785      0.43838549794981      1.54355364499158
