24
Coordinates from ORCA-job orca
  C   1.79203489504891     -0.81578747141603     -0.37362720099933
  N   1.32857675660012      0.35547412304441      0.32430276995660
  C   1.27134711009700      1.56343957600906     -0.56298369031056
  O   0.07925602157827      2.27788753032773     -0.41937334231561
  C   -1.02645022276644      1.73505331120830     -1.06426666651216
  O   -1.06292734969479      0.33727949851715     -1.05692921635882
  C   -0.98386748124471     -0.35397832677538      0.15822155940355
  O   -2.12085344079646     -0.20177029124402      0.89505426350563
  C   -2.26101638024406     -1.13447152561659      1.96612875826893
  O   2.04702566542830     -1.89278484452740      0.50982428146528
  H   1.18663630783382     -1.09810594424139     -1.24944298963523
  O   3.17412047855225     -0.69303265549935     -0.69100783385939
  H   1.44128192737938      1.26585690377481     -1.61001115681483
  H   2.06217498347048      2.24418537432565     -0.24852020172166
  O   -2.07732416163997      2.36165138369029     -0.36421106976222
  H   -1.08361834505577      2.00000786881949     -2.12635887470959
  O   0.10420406793222      0.10763111834106      0.97867526320572
  H   -0.81961994734001     -1.40484168253037     -0.12550980747824
  N   3.43982422599582     -1.78957808189031      0.19437339920925
  H   -2.19246344779849     -2.16613877255044      1.59538114564152
  H   -3.25252776343364     -0.96648083460764      2.38515003553692
  H   -1.50078743298668     -0.97345600458465      2.73568920828436
  F   3.67266585563622     -2.87637476853115     -0.67158948268242
  F   -3.21769332255175      2.11833251595676     -1.17897015131769
