15
Coordinates from ORCA-job orca
  C   -2.01847016138224      0.14220297022896     -0.13811790414690
  C   -0.79129033111814     -0.57287535670768      0.43412793314766
  C   0.44958824530720     -0.34624178039330     -0.40815523382826
  C   1.82895291047346     -0.36996444708681      0.22529889305048
  F   2.85099389699288     -0.91793310914944     -0.44606021098883
  C   1.25893409764497      0.92656621271610     -0.23616399600148
  F   1.77786784959309      1.52906728212253     -1.31443153565150
  H   -2.89988658857030     -0.04289273556964      0.48236354644097
  H   -2.24487939318501     -0.20069898755390     -1.15287411984656
  H   -1.85334940021417      1.22316579221669     -0.17575055843212
  H   -0.59786796226212     -0.22164855331241      1.45215731733574
  H   -0.97457232453588     -1.65040341327216      0.50740947697097
  H   0.42733225698549     -0.71397485359332     -1.43246901141562
  F   1.93814870770826     -0.61982132639618      1.53912534020729
  F   0.84849719656250      1.83545230575055      0.66353906315816
