15
Coordinates from ORCA-job orca
  C   -2.31492946119803      0.25587133576455      0.05440318679162
  C   -0.81512055053077      0.07569204799436     -0.03116973424464
  O   0.06999960526568      1.10893090418465      0.46742213148701
  C   0.86964559341866      0.09887158926660     -0.25722699938039
  C   2.29542068449894      0.35213981999726     -0.58742633302846
  C   0.11551558158011     -1.02128036803230      0.50680193096393
  H   0.05756955721382     -1.99432661699012      0.01905656517439
  O   -0.15568256137505      0.04247914891295     -1.32082669059689
  F   -2.68858399307900      0.28346797435299      1.33955168197860
  F   -2.71041370301405      1.38543604800608     -0.52843602012702
  F   -2.92742743930646     -0.77360889771787     -0.54349549518815
  H   2.87804722893833      0.43658489703114      0.33311983429105
  H   2.68935710396857     -0.47527179903055     -1.18243044107402
  H   2.38185580353496      1.28019897213013     -1.15639081130718
  H   0.25474755008427     -1.05518405586987      1.58742619426015
