14
Coordinates from ORCA-job orca
  C   -2.66837377589964     -0.05066679563260      0.24251017608469
  N   -1.31230590243870     -0.45376810615577     -0.07541492602849
  H   -1.12568541767726     -1.31238600613454     -0.56896580730087
  O   3.43559415581475     -0.31945888962844     -0.36576343786048
  C   2.40656364083538      0.39919217858190      0.12035813939202
  C   1.07612278531265     -0.33757214542014     -0.17194046643115
  O   1.08181529162995     -1.39846625709142     -0.74776904474795
  C   -0.25490415432820      0.31015373919458      0.28337369387126
  O   -0.33302225602681      1.36535466999519      0.88219216961999
  H   -3.36097684708859     -0.80324652014063     -0.13531410259647
  H   -2.90232584506262      0.91703429887428     -0.21196710073243
  H   -2.79928424739788      0.05122632636822      1.32426133482747
  H   4.23845589652516      0.18314594814953     -0.15967621648478
  O   2.51832767580182      1.44945855903984      0.68954558838718
