16
Coordinates from ORCA-job orca
  C   -2.54964728296091     -0.54335073719023      0.40734737249597
  N   -1.84142281789972      0.38742812255720     -0.36067633276787
  N   -0.49150326527371      0.46512643235374     -0.05904371122627
  C   0.13460074206443      1.50767027704730     -0.41356687558956
  O   1.45849823856561      1.69000706612662     -0.18826518362173
  N   2.12966731579876      0.56958573894205      0.38017803207899
  N   2.52654444876491     -0.26450944578527     -0.64660590894664
  C   2.91356685847238     -1.42938805452525     -0.31448211878821
  O   -3.46192231492323     -0.11805631627807      1.38571448119007
  O   -3.87207163521816     -0.72800085196209      0.07014882414055
  H   -1.94620407620382     -1.41515363400402      0.65785018903183
  H   -2.33681940476423      1.26849587680553     -0.47945449859444
  H   -0.29017866282112      2.38780602938550     -0.89949695590236
  H   1.43937441716048      0.11273173662783      0.98172335042156
  H   2.90200209025590     -1.81254270787521      0.71026763473265
  H   3.28551534898244     -2.07784953222565     -1.10071429865452
