19
Coordinates from ORCA-job orca
  C   1.79760871912662      0.26379291057609     -0.26707704456015
  H   -2.41790304275082     -1.14897841509274      2.45998480460939
  O   0.52373532039066      0.86880997565623     -0.34492944872978
  N   -0.08082910946262      0.82394700425586      0.96119734622688
  C   -1.13303820940471     -0.16952870220854      0.94548007485680
  C   -2.14996207662637     -0.11514867971542     -0.16979677406999
  O   -0.66075936534714     -1.47063191213402      1.28391148295823
  C   -1.42249925081535     -0.75567876798058      2.26083587213895
  H   2.49538027262611      0.86103184430464      0.33223963552221
  C   2.33233045528812      0.16701920296918     -1.68465805225012
  H   1.74150105285910     -0.74723192453028      0.14901468286528
  H   -0.50224081406986      1.74787602170326      1.04469139983926
  H   -2.85338653678741     -0.94509392235924     -0.08280229757339
  H   -2.70791045747618      0.82643796353745     -0.13667557098689
  H   -1.64113897528850     -0.17881517379099     -1.13390349380922
  H   -0.86239854367860     -0.41458231737109      3.12878187228247
  F   3.55490644595642     -0.38968003001586     -1.65982079626354
  F   2.43989767452270      1.36938312429135     -2.26501647243190
  F   1.54670744093783     -0.59292920209532     -2.46064822062450
