18
Coordinates from ORCA-job orca
  C   2.13815918878123     -0.31899488542106      0.05173902008548
  C   0.77906654314400      0.15605247101128      0.57201887159175
  C   -0.35357366212185     -0.85876343743198      0.47035124699304
  C   -1.02871135799236     -1.06710442148056     -0.84092377938779
  C   -1.60773121986553     -0.08647102565206      0.16957594507169
  C   -1.18356514418445      1.35604810705602      0.07440324045988
  F   -1.44873642812596      1.97335623151770      1.24961622788697
  N   0.30608283237685      1.40752700685434     -0.06347216593665
  F   0.55037943999551      1.28312316354742     -1.45997119094520
  F   2.06648243533538     -0.86149262186597     -1.16840266992108
  F   3.02735980530875      0.67505953037926      0.02076763274094
  F   2.59844125368838     -1.26597588488683      0.88667865168530
  H   0.92739079249795      0.39759306623861      1.62991799341095
  F   -0.32295172826376     -1.84716997428107      1.39327058659540
  H   -0.56437816530850     -0.70424693286380     -1.74746785272349
  H   -1.58602620358494     -1.99153738019625     -0.93790576829751
  H   -2.55010613122459     -0.30550687112388      0.65497025459763
  F   -1.74758325045611      2.05850385859883     -0.90818524390731
