21
Coordinates from ORCA-job orca
  H   3.10838343863146      1.74460516948332      0.55733451163471
  N   3.53433139355935      1.06585479772598     -0.07618223068622
  H   2.97361769970895      1.07355027837067     -0.92920814232217
  H   2.61904716641772     -2.24289056120922      1.05439847122991
  C   1.95651649085047     -0.49650893756788      0.73661042366747
  O   3.28985507222679     -0.21118593926929      0.52629296860258
  C   -0.91805616865650     -0.21195882104099     -1.56001305808510
  C   -1.08525048638303      0.26302449452592     -0.13746743147582
  C   -0.06653676831505     -0.77905340339323     -0.46377157048007
  C   -3.34970123777876      0.47963191678887      0.41309392458732
  H   -0.45196853008085      0.48067032292604     -2.25109288288798
  H   -1.68403235292006     -0.85133514534590     -1.97955036158887
  H   -0.73559309557129      1.25492137822533      0.12553123713265
  H   -0.26847485608445     -1.79033923372009     -0.12436581946208
  O   1.29268697001211     -0.42647236406446     -0.48486494000606
  O   -2.18960003085782     -0.18501340310134      0.62206136907408
  F   1.39381843316024      0.41943090806551      1.58311443509835
  F   -3.22378913361076      1.79925326552743      0.62882416121926
  F   -4.25487412324252     -0.00489074254146      1.25008995651348
  F   -3.80882171730253      0.33256055415879     -0.84226151299734
  O   1.86844183623651     -1.71385353454398      1.35142349123193
