19
Coordinates from ORCA-job orca
  C   2.89643464604175      0.65308109729446     -0.52911736397271
  O   -3.51247914973779      0.20420653476071      0.62397341331273
  F   -2.40797495873525      1.81917866152353     -0.46846707077610
  H   0.62385448824357     -2.32092643745105      0.17307563107260
  C   0.28148368030694     -1.54325690966348      0.86844461720843
  C   0.97796861643612     -0.22705767187146      0.51315177551582
  C   -2.28951021787615      0.77958353511037      0.40533669073759
  C   -1.23438877639285     -0.18871449497308     -0.16905612098126
  F   -1.86688572705014      1.26346309842165      1.58012656134615
  H   3.79334689358054      0.29834436178963     -1.03850256592149
  H   2.34602552316748      1.33215240823002     -1.18953766351095
  H   3.18811997658710      1.19725734560987      0.38030314440753
  H   -3.92275700772856      0.01704555484159     -0.22801345469637
  H   1.20957994017008      0.40225455333542      1.38618724797594
  H   0.45678931169080     -1.86549449816755      1.89630472776604
  O   2.12423714108789     -0.49662290090128     -0.21198680113166
  O   0.00395828059099      0.46213560870946     -0.27487446235882
  O   -1.10195261115504     -1.26984583071797      0.71577205659581
  H   -1.56584904922746     -0.51678701588085     -1.16975836258929
