22
Coordinates from ORCA-job orca
  C   -2.44591410630981     -1.28955356475037     -0.20806809014467
  N   -1.27870758404869     -0.55749775518534     -0.74012225610255
  O   -1.99286946248977      0.49178969676824     -1.42372127083557
  C   -2.70805304257430      0.89929777626971     -0.27536521766779
  N   -1.60859782590029      1.26047223473317      0.68145610697616
  N   -0.77305164550252      0.14209432738569      0.45295223854648
  C   0.64878592266308      0.44361414148135      0.39438477612960
  C   1.42669648036365     -0.75238517474643      0.94757736847306
  O   2.81472883580838     -0.55974248646432      1.04102710297626
  H   -2.15241913349578     -1.90726562025136      0.63843606850628
  O   -3.32988651516611     -0.22868898842145      0.22214674064348
  H   -2.91138018401474     -1.86303627100285     -1.01049462332516
  F   -3.52731701358564      1.88800390625563     -0.49766666461796
  F   -1.01578515695536      2.41270400357485      0.00232393920105
  H   0.84764423790008      1.30656202477973      1.02740695509973
  H   0.96631991281264      0.66826023441498     -0.62518492098038
  F   1.04940955377032     -1.01372345961228      2.20273501190136
  F   1.18542443958290     -1.85666854786282      0.21314069980391
  C   3.51391953059649     -0.01530603618876      0.00447665225859
  F   4.79268844594982     -0.26774948861058      0.21329178965438
  F   3.34712215590740      1.31518125554934     -0.05666295974972
  F   3.15124015468826     -0.51636020811614     -1.18084844674651
