12
Coordinates from ORCA-job orca
  F   -0.00104831458871      1.96578709776542     -0.77341597899870
  H   -0.13457360843939     -0.21399289192569      1.58754415721085
  C   -0.05967431135311      0.03247907022006      0.52843458751366
  N   -0.69859839270936      1.38320453868100      0.30394457770785
  C   -1.22493239579839     -0.54422833921960     -0.27539788615222
  C   1.38857910492453     -0.16306300828956      0.09519316528388
  O   -1.83143613715160      0.72441549373521     -0.31078826002932
  F   1.77986377332886     -1.37959847179649      0.51062276158886
  F   -0.96540036681056     -1.02326186600662     -1.49062993982731
  F   1.57547481281594     -0.09800096423880     -1.21703100610774
  F   -1.98849777034118     -1.43596679197305      0.35429699104987
  F   2.16024360612298      0.75222613304811      0.68722483076032
