22
Coordinates from ORCA-job orca
  C   -2.33830560177231      0.70103832203718     -0.61494802764206
  O   -2.21733991856043      1.53989984426752      0.52205118421832
  O   -0.88284658925695      2.12370655571774      0.70334797595129
  C   0.02871063845870      1.05448732782963      0.49246865344728
  O   1.33126233867241      1.45906240118597      0.80484243219413
  C   2.23265012410261      0.71339124684776      0.00153613008756
  O   2.11836724029288     -0.68242321152880      0.20437392202940
  C   1.39536917730616     -1.50160104434741     -0.70846326799984
  O   0.04134967078199     -1.19860163542128     -0.95644828377487
  O   -2.12484875502865     -0.68665314012892     -0.38542555608567
  H   -1.73696186544478      1.08088606107117     -1.44649924979074
  H   -3.39987615454783      0.76735152458568     -0.86296596673775
  H   -1.10612373503295     -2.17002424871647      0.47643485320164
  H   0.02688110869248      0.86326236450677     -0.58188388893923
  C   -0.39864846070311     -0.22572852124814      1.23221425854606
  H   2.08856395301701      0.95782415800848     -1.06242593981686
  H   1.85661699863219     -1.46072004411071     -1.70186623156513
  H   1.50608672448867     -2.50636546047938     -0.28254883896552
  C   -0.90249907488680     -1.15010227423453      0.13107857141180
  H   3.22834773679940      1.00645683282477      0.33561321332559
  H   0.45090042594873     -0.65630916323649      1.75408399194700
  H   -1.19765498195941     -0.02883889543052      1.94542706495760
