23
Coordinates from ORCA-job orca
  C   2.53854681482737     -1.31896827761265     -0.47759506540950
  C   2.15375190318098      0.09446087517617     -0.91201463715616
  O   0.78977226142103      0.41227319797311     -0.69613151835709
  C   0.42710942376646      0.62774944878938      0.65657803996935
  C   -1.05714294035442      1.01118473334139      0.68853314269948
  C   -1.33764896643586      2.30998335032788     -0.06750335219087
  N   -1.90209438193019     -0.05597462773005      0.15227701300467
  C   -2.26003794559491     -2.28271876136025      0.43178344764964
  N   -1.99908085839294     -1.15026940106422      0.95779480152501
  H   2.47862026332809     -1.44722788146932      0.60626673393648
  H   3.56870449314300     -1.53159832812487     -0.78074675162374
  H   1.88076957480833     -2.05565222753053     -0.94762212992672
  H   2.31011998112819      0.20679901765672     -1.98950064420546
  H   2.79629655468926      0.83528386150816     -0.40909724828520
  H   1.04344959059731      1.42953598474142      1.09632164764556
  H   0.57214271253975     -0.28017386104561      1.25774432479605
  H   -1.34468413143380      1.12286015880503      1.73884055974266
  H   -2.40169103069029      2.55342976576210     -0.02342138073202
  H   -0.77145787275044      3.13707933084044      0.37047088204444
  H   -1.04032107747764      2.22208167345064     -1.11602626020429
  H   -1.68061019448126     -0.26973095565880     -0.82075417842321
  H   -2.36650400741447     -2.43705012060745     -0.64772415604696
  H   -2.39801016647355     -3.13335895616868      1.09033372954785
