17
Coordinates from ORCA-job orca
  C   1.16739125727401      1.65322241226394     -0.73562091352561
  O   -1.41350582497457      1.56312914005713      0.43971241835495
  C   -0.99855597542902      0.36783303644472     -0.17169331297593
  H   2.39467312182530     -1.79889351647747      0.09918932937917
  H   0.99602485212167     -2.57336583504386     -0.24404606461083
  N   1.38059877734517     -1.70976020262125      0.13359477330232
  C   0.52213007755588      0.38350841621712     -0.39004167395974
  O   1.25424444748722      1.08203614250502      0.59256600914737
  H   0.57491149195726      2.56052130894361     -0.80610785405319
  H   -0.82970694039009      1.69928618099249      1.19963027312594
  C   -1.54619470472740     -0.82274433361767      0.63167115818547
  H   -1.48578131877490      0.31031908356585     -1.15081465860993
  H   2.08969637802722      1.61045555622016     -1.30808912717383
  O   1.11017459223737     -0.74949455581624     -0.92207296255867
  F   -2.86841151668179     -0.68187106587003      0.79437748580235
  F   -1.35473024578590     -1.99013481616827     -0.01018407288848
  F   -0.99296046906744     -0.90404695159524      1.84792919305867
