21
Coordinates from ORCA-job orca
  H   -0.89352752331881     -1.50774943370554     -0.29494930669647
  H   -4.02285439217555      0.68272361802015     -1.15695021661373
  C   -3.39468107695780      0.42490797546715     -0.30247524193219
  O   -2.07817801343176      0.83394745363187     -0.61021697827462
  C   -1.16059653597425      0.58086685376507      0.41671545024044
  H   2.09773032267632     -2.06045853384532      0.05219725379848
  C   2.06298303847442     -0.97912370875839      0.18054141462939
  C   0.79158664214110     -0.31090381520752      0.46386379946674
  O   1.76498980235069     -0.51064645729850      1.48980388941679
  H   0.65991746531677      1.90737921567011      0.66292305541145
  H   -0.84829057319466     -1.41224729842766      1.49115390589810
  H   -3.45918037485203     -0.65945581068860     -0.13070989285092
  H   -3.77791617921309      0.94068395163272      0.59074502347381
  H   -1.53039844099995      0.97449524634370      1.37438977357371
  H   0.37392614379899      1.29020528367980     -0.98672348982322
  C   3.17636038522504     -0.26000531504706     -0.54494065328627
  C   -0.62346671458285     -0.88513335445970      0.56223539371316
  C   0.26773696889531      1.07508559598822      0.07882305664933
  F   4.38039662206195     -0.72774264030650     -0.18216932379804
  F   3.04983147342727     -0.45499247519577     -1.86980523034669
  F   3.16363196033288      1.05816364874174     -0.31565968264927
