24
Coordinates from ORCA-job orca
  C   2.42082553856637      1.05923879805043      0.77149940880552
  N   2.36028946759069      0.64996456832457     -0.61131726082293
  C   1.01378413074856      0.51295707213969     -1.08569315545911
  O   0.79001583245483     -0.41725333026826     -2.13333246551960
  C   0.23782767672098     -0.72001708011896     -0.86367907387530
  C   0.84531729863500     -1.95029876525200     -0.18932438412429
  C   -1.27739723634698     -0.64998518171902     -0.72566820130043
  C   -1.78665747355641     -0.52916413654208      0.72245842375476
  O   -1.77681606528056      0.52716111721198     -1.34093717792270
  H   2.05365066711217      0.22895929517872      1.38272061048538
  F   3.68283061597344      1.35609887371011      1.08721438610277
  F   1.65993970046394      2.16144406538192      1.02674723840795
  F   2.88880195704728      1.73884259579074     -1.35209697922334
  H   0.46885808647511      1.44686187630965     -1.19513712985800
  F   2.10485318079250     -2.17182581791847     -0.52754607222391
  F   0.79034072429673     -1.80905021093371      1.15952925805956
  F   0.12725671361486     -3.04269461124746     -0.49415793780354
  H   -1.70691100330510     -1.53400818680140     -1.21331407574848
  H   -1.98374693178295     -1.48555616794970      1.20575537017087
  H   -1.08431451677319      0.05413917698444      1.33647441840359
  O   -3.00944570580648      0.16351500714218      0.54364836316549
  C   -2.76082536323337      1.09578066230058     -0.47531294148708
  H   -2.36840445181004      2.04326265032900     -0.07249949602079
  H   -3.69007284259736      1.27162872989704     -1.02489512596640
