13
Coordinates from ORCA-job orca
  H   0.20067153136905      1.73802345196677      0.73138165700504
  N   0.02044098973443      1.04047695936865      0.02133972837307
  C   0.92042054303522     -0.02902094753401     -0.10351790158088
  N   0.42633534629864     -1.17144439666966     -0.44508004701209
  C   -0.99808620479762     -1.01037843933247     -0.39191701109111
  O   -1.59660142160060     -1.41283025770773      0.88030734346321
  O   -1.83117417540511      0.01288792784100      1.23989161632870
  C   -1.29875215218308      0.45025540800242     -0.01891676468223
  N   2.24410247887597      0.21325821594229      0.11693759341334
  H   -1.50988079613927     -1.50128969067468     -1.22165277371040
  H   -2.01873544658796      1.07382157821379     -0.55247738364376
  H   2.85682979282313     -0.54070642839087     -0.15419845792079
  H   2.58443051457719      1.13694661897450     -0.10209759894210
