20
Coordinates from ORCA-job orca
  C   2.49530775422663     -0.37627418856765     -0.41400090619345
  C   1.16838518607902     -0.51044531285177      0.18240316796564
  C   0.00967434034044     -1.46690329719025     -0.11326020320135
  C   -0.91468377529979     -0.52526449687959      0.71110453362082
  C   0.20543092501116      0.56507463691916      0.73663312426440
  C   0.03703089753087      1.80519751801123     -0.11927474507627
  H   -0.14041673583530      1.54375363627502     -1.16413628971286
  O   2.30912186020908     -0.91638723013549      0.90473023504958
  H   2.98090284335472      0.59751526468089     -0.45230939967726
  H   2.82101869171609     -1.08874621790407     -1.17059973901715
  H   0.13189990504344     -2.47788737618123      0.27610052540331
  H   -0.25646981099130     -1.51048896368249     -1.17157922764666
  C   -2.27293575086341     -0.20442686310632      0.13867774879894
  H   -1.06230799967687     -0.88774488529960      1.73024062770724
  F   0.50772111324877      0.95657602626008      2.02070268754709
  H   0.94795279168239      2.40589391172765     -0.05373820743978
  H   -0.80561253249464      2.40242580129923      0.23717138479761
  F   -2.21348068226677      0.12944139974136     -1.16796796710306
  F   -2.85341507638575      0.82178177489078      0.78620430934118
  F   -3.09512494462878     -1.26309113800692      0.23351634057206
