21
Coordinates from ORCA-job orca
  H   -1.80985474800510      2.25357114409010      1.29751077488400
  C   -0.79094974554644      2.48064487097523      0.96368299844193
  O   -2.72060468597105     -0.66067722804159     -1.18692112489253
  C   -2.10496623044879     -1.23729587595687     -0.06462109997158
  O   -1.48550858445418     -0.28585195519852      0.77460452047471
  C   -0.31961247586015      0.28890884476843      0.24783946112908
  O   0.67849116090575     -0.66995628615256      0.26450014389467
  C   1.86459669788962     -0.29612499332105     -0.43530872290896
  H   -0.36316354018289      3.25124257599587      1.60657940688302
  H   -3.42476806827485     -0.08104719583148     -0.87437635433006
  H   -2.82471271263999     -1.75139065934209      0.58259837592057
  H   -1.37165956838384     -1.94933627612264     -0.45390814318186
  H   -0.50597990617193      0.64723129083757     -0.78402793460291
  O   0.05316407250687      1.34726875469299      1.06648293484753
  C   2.82743538557744     -1.46680488646111     -0.38208016720075
  H   -0.83152804338379      2.85825806980361     -0.06895464134497
  H   3.75141153714048     -1.22097365336441     -0.91388901931466
  H   2.30146162053241      0.59625618922942      0.02939340597539
  H   3.07764876535947     -1.70991157989341      0.65394856155434
  H   1.61327978818845     -0.04085138098547     -1.47706055544026
  H   2.38581828122250     -2.35315876972204     -0.84599482081668
