22
Coordinates from ORCA-job orca
  C   -3.25077679293958      0.01252454867324     -0.60764454772739
  C   -2.20588804831398      0.83949120212093      0.13370525790230
  O   -1.07692781840353      0.05251470854037      0.52307907887725
  O   -0.26824965487182     -0.05907391050581     -0.68652918651299
  C   0.49609891671402     -1.21407277468653     -0.55237461252344
  N   1.57979351815646     -0.96064373894127      0.42809940662469
  O   2.67965562194275     -2.00010250055844      0.19642004849898
  C   2.84075511639787     -0.69229377370674     -0.15062956618423
  C   3.83752478660502      0.16024513112321      0.64343288136955
  H   -2.77391571338975     -0.48887105743350     -1.45119367267618
  H   -3.67985474274744     -0.74290076629353      0.05591253470246
  H   -4.05084287423984      0.64907293503859     -0.99746857549169
  N   -2.75501103981184      1.29328817250412      1.38955230620239
  H   -1.84032134238876      1.67639537062314     -0.47573483488887
  F   -2.01473201332773      2.43891930120541      1.77647067466496
  H   0.87793957347497     -1.43016184304276     -1.55423334897891
  H   -0.09260136753300     -2.04918322382194     -0.16563381677182
  F   2.95801094369739     -0.42285834702708     -1.46181116941351
  F   3.58465462243429      1.45581680828841      0.44194326649511
  F   3.75219894438160     -0.10416206991366      1.94040504259832
  F   5.08132525672085     -0.09969577508767      0.22682998373673
  H   -3.67883389255795      1.68575160290151      1.20973984949628
