18
Coordinates from ORCA-job orca
  C   2.27324325785785      1.32539468659465      0.16107232860001
  O   1.27030341778049      0.88370589308303      0.95720204381211
  O   -2.53002532270309      0.79115998508032     -2.00883474967947
  H   -0.97733041331695     -0.09132936230630      1.74991816695876
  C   -2.03077081245158     -0.24509571449348     -1.24169684594047
  O   -0.67789457866765      0.03524014796882     -0.90562432035012
  C   -0.10107023070372     -0.93522664211944     -0.10310199591586
  C   0.97631037362269     -0.49335986091920      0.84503138198134
  C   -0.35415121389785     -0.90510211331646      1.39564154830560
  F   2.40714056482942      2.62851591701456      0.36333762863864
  F   2.04357465489852      1.10868886530902     -1.13822238710566
  F   3.44392117739266      0.72658141406760      0.45583295496680
  H   -2.49135364199853      1.59929061197389     -1.48463980202077
  H   -2.60291717352390     -0.40331751664193     -0.31019354794499
  H   -2.09311492121998     -1.15434638990710     -1.85581976633202
  H   0.03296462745198     -1.90928892521944     -0.57644139938837
  H   1.84017381852142     -1.13385083442926      0.99275424321728
  H   -0.42900358387179     -1.82766116173926      1.95928351819721
