19
Coordinates from ORCA-job orca
  C   -0.88096867542963      1.44860296192128      0.25302311968186
  C   -0.68117775919878     -0.06114471016832      0.39282488356009
  C   -1.35722064956260     -0.59164485567767      1.65534333613818
  C   -0.56615590098434     -1.03058324256538     -0.73962644421522
  O   0.02491826907957     -0.52036145441994     -1.89558606765977
  C   1.29784212167724     -0.37089715238460     -1.17479972264643
  N   1.84213882653966      0.94912542550962     -1.22857103292692
  F   2.77584135309586      0.96409370603896     -2.29548760000908
  C   0.64980858417105     -0.80494868100702      0.12876466990300
  F   -0.95247476766408      1.86210524244191     -1.00672739233879
  F   0.10999481412382      2.11886904407901      0.86325622651607
  F   -2.03719070217234      1.81005278439986      0.85164555704889
  F   -0.82352412195217      0.03658454758108      2.73515316858725
  F   -1.12395788502777     -1.92086273853159      1.80207166182422
  H   -2.43741141774677     -0.42396822031827      1.65384129463536
  F   -1.38026683465226     -2.05961882577401     -0.91951691651113
  H   1.99830299975275     -1.11332556372555     -1.57097628784138
  H   2.43039899235796      1.10382962455785     -0.41042780852757
  H   1.11110375359283     -1.39590889195723      0.90579735478137
