21
Coordinates from ORCA-job orca
  C   -2.16854951659112      2.02558336226110      0.23331140355185
  C   -1.85232596784789      0.66181732440294      0.83627389210707
  C   -0.50906355392216      0.84288962123982      0.13500038232306
  C   3.59494367509319     -0.07119400533342     -0.07112486677175
  C   2.41797768349922     -0.99140082070991     -0.26593201186918
  C   1.70147551961580      0.35687302957220     -0.39760082981898
  C   -1.44763088989710     -0.24128309812481     -0.30827939741742
  C   -1.15233391012006     -1.68325981847920      0.03959603719902
  F   -2.09328167856222     -0.17614224877674     -1.50142759037688
  O   -0.87281518904218      2.07942594097963     -0.43676650456201
  H   -2.99548232039230      2.06958412886807     -0.47912971832969
  H   -2.24382935280612      2.82423398182455      0.97479567576818
  H   -2.13532913141816      0.29557395996348      1.81352842034139
  H   2.04581775410645     -1.57010493044170      0.57611119332359
  H   2.54762248231616     -1.60570209091487     -1.15694109492422
  O   2.88432812069445      1.07008378276945     -0.19633110791474
  O   0.76698071745679      0.69087238947303      0.57838777656333
  F   -2.27646606378434     -2.40596333970401      0.07597445743001
  F   -0.33896015607324     -2.24416226341015     -0.86898603205191
  F   -0.55705274496182     -1.78320957706006      1.24230778778745
  F   4.68397352263664     -0.14451432839938     -0.82276687235817
