19
Coordinates from ORCA-job orca
  H   -1.32501576686161     -0.89154484166973      1.44389412457356
  C   -0.70276425718382     -1.32871322035272      0.67294299602037
  C   -0.20092743803137     -0.41296125368505     -0.44142324332262
  C   -1.27690959020884     -1.42321485203940     -0.70509066334414
  C   -0.58128734548033      1.06134992224338     -0.48259227569322
  C   -0.38025216178130      1.85334510600067      0.79546633218791
  O   1.00821602470390     -0.75930266961659     -1.05019707575267
  C   2.18308290075571     -0.49472654848769     -0.29627113705694
  H   3.00728415423036     -0.96161432405215     -0.83867619063958
  H   0.00583012689463      1.54223844151661     -1.26882154461756
  H   -0.04499640438877     -2.12558451307548      1.00021344259376
  H   -1.63736826041203      1.16777648325696     -0.74371977429412
  F   -0.55958553490903      3.16510278003389      0.56791940453935
  H   2.37713261314740      0.57916915953239     -0.20116231137819
  H   2.12209874389397     -0.92602946983437      0.71105750299771
  F   0.85127085132970      1.70301259657977      1.32024969353460
  F   -2.55206008315896     -0.97263207750575     -0.89536850508249
  H   -1.03413534462402     -2.26869108030460     -1.33989113857417
  F   -1.25961322791558      1.49302036145985      1.75147036330846
