25
Coordinates from ORCA-job orca
  C   -2.41139267518248      1.38077730556932      0.43246189113824
  C   -1.50414510231713      0.12720135789297      0.41102895928778
  C   -0.03513021396274      0.52489715275316      0.61210271407764
  C   0.87801848472755     -0.68528488234426      0.40012706147780
  C   2.34445500759957     -0.31894257486963      0.59549624664279
  C   3.02636581409822      0.51607314057047     -0.45302380369490
  O   3.11124310805526     -1.30827894757644      1.21215638104239
  O   -1.78075414301633     -0.68201523103334      1.54841217792302
  H   -2.67046361558066     -1.05525684071454     -1.05534966459469
  F   -3.68449031114939      1.07593222700148      0.16343783098944
  F   -2.00135782586440      2.26681699507734     -0.48793555368979
  F   -2.36445675463301      1.97196620549204      1.63044666133652
  C   -1.67536185445767     -0.65718870501351     -0.88207005085400
  H   0.18996413859717      1.31303830235674     -0.10850654528078
  H   0.10021762484827      0.91772184830042      1.62267185793183
  O   0.76117560343199     -1.24172214175744     -0.91269570340691
  H   0.64449620975120     -1.45650256095934      1.14117425743874
  H   4.06604266817016      0.67131979792682     -0.16433856825949
  H   2.53275302612182      1.48691108454728     -0.55364385154233
  H   2.97741473834332      0.01026353419613     -1.41924399488878
  O   2.66725331336736     -0.07637603161418      1.93111624994700
  F   -3.07739319507508     -1.26445125193990      1.35902465926537
  H   -0.58433446745223     -2.15111883578392     -2.12718154520079
  C   -0.49051580970169     -1.28446281659161     -1.47839294210307
  O   -1.01960276871907     -0.08132013148605     -2.02337972498303
