19
Coordinates from ORCA-job orca
  C   2.21199340701836      0.29199703216676     -0.32046591842676
  C   0.88761815087241      0.01963955378908      0.37772337501706
  C   0.17468891865791     -1.28591902695075     -0.19183468274086
  C   -1.23378089136569     -1.08668358242279      0.35332478445049
  C   -1.48059349160423      0.36831280983563      0.12431935595401
  O   -0.82116080026620      0.92335815875309     -1.03847372170363
  C   -0.21347307151572      1.11114697432067      0.22386867787382
  O   -0.21191075014673      2.31573213225017      0.81478547831648
  F   0.96496283822368      3.03896967532579      0.28499623256894
  F   2.04417773397350      0.66768564501599     -1.59571150712319
  F   2.93812512072723      1.22754853450057      0.29980238741324
  F   2.94977528300657     -0.84005645615328     -0.32838618822130
  H   1.11688862683711     -0.11200509316749      1.44011422579549
  H   0.23011818501969     -1.27385318825463     -1.27912449469522
  H   -1.30928227936200     -1.32869598185550      1.41316005897367
  C   -2.60440584225335     -0.56257223653918     -0.13996140357147
  H   0.65981961997422     -2.18945712915001      0.17678618270818
  H   -2.89378313790881     -0.57925942634791     -1.18564033036205
  H   -3.40977661988795     -0.70589039511618      0.57071648777312
