16
Coordinates from ORCA-job orca
  C   -2.39202853005640      1.19151127717067      0.61835900231659
  O   -1.11528956942069      0.62550595589033      0.61197178664363
  C   -0.94424346587095     -0.31461316940893     -0.41258503749218
  C   0.47263960136582     -0.86002992150474     -0.34041824797517
  F   0.60905300491197     -1.82267428345472     -1.28798090296352
  O   1.37411759171065      0.15526806889643     -0.54222773029045
  C   2.72626826959144     -0.15806676882037     -0.43720126528565
  F   3.35170418244968      0.98080746291321     -0.12915816183769
  H   -2.59761635163754      1.70632656485357     -0.33574188184432
  F   -2.42420583121514      2.09406106982313      1.62262099012395
  H   -3.16232312024992      0.42192215572975      0.79897414053251
  H   -1.08089164506107      0.12536421786794     -1.41105391560732
  H   -1.62657464655712     -1.17164971308066     -0.31151935659654
  F   0.69812905155487     -1.46916632242631      0.84999484362717
  F   3.19188824259864     -0.58495377173931     -1.62551611766100
  H   2.91937421588577     -0.91961282270998      0.32408385430998
