19
Coordinates from ORCA-job orca
  C   -2.74906793116725      0.80311250445026     -0.72465194096378
  C   -1.45381171848220      0.15109270691456     -0.22140204343295
  O   -0.19865507943974      0.59647463435935     -0.18388257453031
  C   0.76524054101149     -0.35878597930655      0.27250092463418
  C   1.78855324214946      0.41095256424385      1.10886407405208
  H   1.43959998063466      0.75798429213571      2.08204278920445
  O   1.42074859885707     -1.01659870056140     -0.78692313761338
  O   2.67457475252528     -0.37024029130054     -1.20969241665398
  H   4.23745576555643      0.57806856378778     -0.40300227189225
  H   -2.84819728009828      0.90877559945653     -1.80443743874931
  H   -3.13291774665262      1.64163590392818     -0.14458474208840
  C   -2.96732145490364     -0.61275769746563     -0.13904997614023
  H   0.25881031412796     -1.15975760451008      0.81796788894432
  O   2.99395443186886     -0.36454014777134      1.09548613875271
  O   2.35930148914369      1.40251778981608      0.25324774147293
  C   3.21053109475930      0.32108729217690     -0.13589413796630
  H   -3.84276184014352     -1.24104835658231     -0.01315378795160
  O   -2.14118340762679     -0.28135282592335      1.01465952274862
  O   -1.81485275212015     -1.11126424784799     -0.87809361182678
