17
Coordinates from ORCA-job orca
  C   3.08739264906175      0.08755297295999      0.27733344721270
  O   2.11523224764361     -0.29032236907610     -0.59487000965664
  C   0.85197700794108      0.32336557737231     -0.43744201564998
  N   0.04360126818536     -0.46365384704680      0.50888085977625
  O   -1.11179384005626      0.20679162029877      0.84667651484957
  C   -2.12562224406549      0.34275689762280     -0.19137392061224
  N   -3.09925028139737     -0.69607255962400     -0.05944076745329
  F   -0.34441798168400     -1.61348668020324     -0.26981476398170
  H   0.93099985835087      1.32544396112857     -0.01093370717740
  H   0.41523414490311      0.35825757409189     -1.43700831921706
  H   -2.59369085307310      1.30758950019011      0.01466652871940
  H   -1.62614377380531      0.39176202423151     -1.16564165522846
  H   -2.82627365096686     -1.54360188672151     -0.54051109065072
  H   -4.01815733199756     -0.40162105077081     -0.36189852902084
  F   4.19001993365521     -0.56885580600357     -0.04572595762824
  F   2.77767402535125     -0.17473260294017      1.54841157605801
  F   3.33321882195370      1.40882667449023      0.19811780966064
