18
Coordinates from ORCA-job orca
  C   1.14014875326014      0.15678187492037     -1.23317569559195
  O   1.31863803530271     -1.10297416447264     -0.64175641681658
  C   1.06542938811278     -0.77890864786616      0.70981111290998
  C   1.88250937642125      0.51423097685800      0.87465440086205
  H   2.91233301957163      0.30564268872219      1.18212712586583
  C   -1.02780279386568     -0.18188845683803     -0.29424846143848
  C   -2.18001022769519      0.72418768703266      0.10615978333257
  O   -1.46938143036412     -1.34831683790907     -0.93559400507709
  O   1.88297727413254      1.05389248719868     -0.45451490392484
  H   1.49328094836228      0.17051368454951     -2.26264038456879
  O   -0.22945362651146      0.50797759632391     -1.22189826333827
  H   1.35699286376158     -1.60788473765258      1.35446266753919
  H   1.41365837635330      1.20747469139909      1.57622960845778
  O   -0.31996304648950     -0.52274253773945      0.89999008170963
  H   -2.82050929623817      0.20882483510610      0.82616013023793
  H   -2.76223496936492      0.96953520970267     -0.78329719399583
  H   -1.79755318260721      1.64002134256805      0.55915995996635
  H   -1.85905946214196     -1.91636869190330     -0.26162954612949
