15
Coordinates from ORCA-job orca
  O   0.40942148909765      0.53066592716064     -0.46546775603365
  C   2.41893529961038     -0.54982295795784     -0.30112705554738
  H   1.95737027099323     -1.53694263118696     -0.42179645953748
  H   -0.59592328460419      1.13646010445792      1.23090408836229
  C   -0.71677264851074      0.42565035354470      0.40644086945877
  C   -1.90037330323387      0.89907841681781     -0.45090426485426
  N   -0.99594207801902     -0.86935564747842      0.93591612832894
  H   -0.26953569710463     -1.15571184328687      1.58024207411647
  O   1.56925800155712      0.34442007464012      0.38938770363640
  H   3.30870172076254     -0.62922778750543      0.32991262965942
  H   2.70127588282873     -0.15313427951861     -1.28250191978260
  F   -2.14483649035865      0.02695276735809     -1.44513643776986
  F   -1.66465558351607      2.09466324427261     -0.99626204943042
  F   -3.00338167174389      0.99388139768080      0.29620698343073
  H   -1.07354190775859     -1.55757713899855      0.19418546596263
