21
Coordinates from ORCA-job orca
  C   2.50127061000035      0.90389322051067     -0.92007893037033
  O   1.35921569763639      0.38109257067685     -1.46356283659315
  C   0.82014359753310     -0.70222592509025     -0.75364281788650
  C   -0.55551749392597     -1.13151897492371     -1.12821452936170
  C   -0.32484845520386     -0.45412126446874      0.20728920139844
  C   -0.37583412300442     -1.29960965334910      1.45067763661290
  C   -0.83929706701621      0.94609201033792      0.42131281853503
  C   -2.28042895249710      1.20483323480206      0.52348252120386
  O   -1.54652304015350      1.55584857136600     -0.65264995011822
  F   2.99712441983558      1.77404968144409     -1.80276045953018
  H   3.25214344648867      0.13717647785884     -0.67925463553948
  F   2.22933156781888      1.58392624842141      0.22988395187647
  H   1.54627144273967     -1.46881902869013     -0.49150692402029
  H   -1.07860531489434     -0.52638185935127     -1.85934886400258
  H   -0.76563750396613     -2.19437028962245     -1.13879116327650
  F   -1.64177433660567     -1.52819544617731      1.84620089849496
  H   -0.14740589700467      1.60631105370025      0.93865173913327
  H   -2.63420497852972      2.04185820948269      1.12191241544439
  H   -2.97661729281727      0.37645208181609      0.41196724396110
  F   0.25839869860067     -0.70284008041354      2.47519476999622
  F   0.20279397496556     -2.50344983833037      1.26323691404229
