20
Coordinates from ORCA-job orca
  C   -0.40517653022940      1.49708430114904     -1.33233733568862
  C   -0.78721900696362      0.04535229991678     -1.08388608713034
  O   -1.34018954322238     -0.60781369390140     -2.24348292289531
  C   -2.20899094041244     -0.36426985672223     -1.17826807272013
  O   -2.64507050570992     -1.50856588261109     -0.54602068547234
  H   -3.29279253157391     -1.27030848343103      0.12599047564871
  C   1.49240117057671     -0.36952662080223      1.06620297331126
  O   1.53038277759769     -0.54204363036558     -0.33097485559132
  C   0.12278019507824     -0.82649159345447     -0.25025463470323
  F   -0.17618752645747      2.13457001200842     -0.18207021405637
  F   -1.40163613372971      2.13982690578035     -1.96926269464533
  F   0.68663204700032      1.59091708245760     -2.09559956342154
  H   3.07433060730105     -1.30490611944544      1.56688900799749
  H   2.45506917480057      0.66245916020461      3.16243818965024
  H   -2.96802009590763      0.39864940843988     -1.35196513282054
  O   2.13827015635527     -1.33366106991181      1.80542628231153
  O   1.74049209752658      1.16579392660051      2.74002202209562
  H   -0.09765407179903     -1.87541039435173     -0.46798948071362
  O   0.10198457554423     -0.53892972852466      1.15370379127810
  O   1.98059408422487      0.90727297696450      1.34203393756574
