19
Coordinates from ORCA-job orca
  O   1.37103258568821      0.20893153121716     -0.75779557776817
  O   -0.76391620439470     -0.31384176379189     -1.07371848344583
  C   0.28511155492451     -0.47225896055401     -0.16181360211845
  C   -0.25160378051069      0.16949178864811      1.12793709072200
  H   0.02680244367947     -0.40203776349677      2.01434931740082
  H   -3.91855528661079      0.82442514996631     -0.46684917170730
  C   -3.16643656045485      0.27820743686930     -1.03053722451788
  H   -3.17203723945855      0.41492074976065     -2.10931815730664
  O   0.58150168126624     -1.80889494667538      0.06891769418007
  C   2.56928559617288      0.14185465059670     -0.07291048752865
  O   -1.66412889578498      0.12543584092318      0.95797737107694
  H   0.09852026441754      1.20211644221417      1.21240702384963
  O   -2.94875992561299     -1.10446082175150     -0.58427883133033
  H   0.59904970541101     -2.25588030806368     -0.78813192116621
  H   3.05324874598351      1.80700202884372     -0.99026792145888
  O   2.81331369202573      1.12752860977766      0.87612078549680
  H   2.89201994012129     -0.86790212310227      0.17324489791984
  N   3.55231411018675      1.09511405355322     -0.44437717305186
  C   -1.95676242704958     -0.16975259493468     -0.36111262924591
