18
Coordinates from ORCA-job orca
  C   -2.43756606300158     -0.07670912025475     -0.33593725308377
  C   -0.94476421726117      0.10612607199735     -0.21587559136014
  C   -0.33863038323047      1.28222430974488     -0.01946134507702
  C   1.15962021607518      1.36212197250165      0.16068209902208
  C   1.75512988075281     -0.04987323687432      0.09060220238974
  N   1.17704922645591     -0.73093725873100     -1.13307725918264
  C   -0.02826033937179     -1.10729076537533     -0.30006327461448
  C   0.92281688458997     -1.05576894568201      0.91460489446185
  O   1.09990649766763     -1.70401733365216      1.90530975447409
  H   -2.70461135602407     -1.13149811222411     -0.43815492326111
  H   -2.96512148865727      0.31345734623406      0.53995782041540
  H   -2.83221939884980      0.44685885106804     -1.21327095633023
  H   -0.90910380897960      2.20644120994510      0.02744389301759
  H   1.61832570173690      2.00347649259098     -0.60320795570840
  H   1.40689170663956      1.81215827216722      1.13194584553596
  H   2.84317808161450     -0.06264068643833      0.18581856558056
  H   1.71615745129085     -1.58146951054543     -1.29657566298739
  H   -0.53880059144756     -2.03265855647182     -0.56972185329209
