23
Coordinates from ORCA-job orca
  C   -3.09515360458990     -1.08401672718918      1.32479952032156
  C   -2.23753074953609      0.14121787067561      1.08000166860682
  N   -2.99025613579654      1.34095775179018      0.56135212181224
  C   -2.23565106699984      1.34625114897854     -0.47546492529541
  O   -2.22468640038889      2.18004362581454     -1.51622319072622
  C   -1.34169692885792      0.15871755596754     -0.22019704406993
  C   0.11877871202326      0.40009093587976     -0.07421460622239
  C   1.08175947205000     -0.32340681157259     -0.66880950425749
  C   2.49264521084831     -0.06470106706576     -0.50516089734759
  C   3.48360056663107     -0.75710291095855     -1.10125469312800
  C   4.89026664067401     -0.41766699260303     -0.88309096562126
  O   5.82564973210985     -0.99451374413961     -1.39652902090571
  H   -3.80676154101200     -0.88945515060228      2.13227925542027
  H   -2.47712328452788     -1.94132164633679      1.61041773696391
  H   -3.66590800162064     -1.34885479306200      0.42928544891791
  H   -1.66690044972867      0.40426596804929      1.97719162357093
  H   -2.91895409932118      2.84053174584817     -1.37240283920132
  H   -1.53885874039265     -0.68288142907400     -0.89160830900496
  H   0.40474652047378      1.23186263504300      0.56928174232585
  H   0.80386555924172     -1.15189369016298     -1.31808302306399
  H   2.76379700691822      0.76203525377130      0.15202477161213
  H   3.28037471091594     -1.59005407260483     -1.76925771306936
  H   5.05399787088604      0.43989654355365     -0.19019615763798
