20
Coordinates from ORCA-job orca
  C   -1.22859774614546     -1.92009733966907      0.29413522305536
  C   -0.44328841794059     -0.62695261472602      0.27255460129355
  C   0.99691641414523     -0.76590672243985     -0.20133469146254
  C   1.76691439273744      0.53278342283015     -0.23459468932406
  N   2.99516399418026      0.57659807930396      0.07399492882648
  O   1.09093409386370      1.66596153383203     -0.59581874377924
  C   -0.27542003133012      1.57999212634452     -1.01853675297576
  C   -1.10673796912045      0.65083349882980     -0.16292936896700
  C   -0.76254683529738      0.44407865513740      1.29273831426372
  H   -0.78604345718042     -2.63743528822136      0.99436135904782
  H   -1.24503740379308     -2.38899838459510     -0.69643157376879
  H   -2.26452305955567     -1.74938544072391      0.60120783920792
  H   1.56628661847911     -1.46206394372154      0.41852921846275
  H   0.98861760501779     -1.18654495075909     -1.21755868475800
  H   3.34919871159060      1.53024805142380     -0.02851176683585
  H   -0.31009292332518      1.25682949449969     -2.06899880428280
  H   -0.64549062769948      2.60800437222900     -0.97538719142371
  H   -2.15513613190579      0.61528979901698     -0.44718979779356
  H   -1.58046989874510      0.25480842256436      1.97900742986280
  H   0.04935367202460      1.02195722884423      1.72076415135093
