19
Coordinates from ORCA-job orca
  C   0.56482962833211      1.69768930072362     -0.79447868570778
  C   -0.23200069247517      0.92052015312034      0.23163779033763
  C   -1.03047475888285     -0.30695127662673     -0.13973003246953
  C   -2.42309824677863     -0.54838813279762      0.39795344826600
  C   0.18614771277271     -0.44199440038242      0.74586369979705
  C   1.43106409600995     -1.15910466870428      0.24374998051534
  C   2.64712405096822     -0.72510813629304      0.93587091714251
  N   3.59696638788965     -0.37183145992994      1.49247913637482
  H   0.94571821961359      1.05712257599357     -1.59488430044396
  H   -0.06173257153541      2.46206862632086     -1.26511529437813
  H   1.42078200882514      2.20297609082136     -0.33573103744208
  H   -0.68998274289925      1.54843467432703      0.99272382836777
  H   -0.88088886565811     -0.64394121201720     -1.16458255279096
  H   -3.17405279538742     -0.02731711008146     -0.20514480247918
  H   -2.51683421594500     -0.18837949444943      1.42723168925458
  H   -2.67326802904469     -1.61469411281825      0.39454771624044
  H   -0.01020442534929     -0.62059203680188      1.79962271569276
  H   1.32597355530659     -2.24117926041907      0.38523598816150
  H   1.57393068423786     -0.99933011998546     -0.82906520443879
