24
Coordinates from ORCA-job orca
  O   4.68891860551720      2.08902186189488     -2.27717887168798
  C   4.38465341281465      2.49310287173791     -1.17563094785220
  C   3.32170586958679      1.95241634547885     -0.37263584040024
  C   2.43660121290538      1.53038110535408      0.33578383495427
  C   1.35990613864403      1.00574388898179      1.16073793225090
  C   0.12888109060533      0.52161971054773      0.36909964820054
  C   0.41977624665443     -0.41637802796809     -0.69051276922306
  C   -0.11374873777277     -1.58294160615774     -1.12724077328974
  N   -1.05080798307653     -2.45401298862694     -0.63992863238799
  C   -2.05768781688968     -2.41365088801699      0.31226235472629
  C   -2.91240121336247     -1.43994032874802      0.69201110954999
  C   -3.08952845521481     -0.06879882352833      0.30064806113167
  C   -2.23962852514822      0.98924902538225      0.25422371309968
  N   -0.95828798768860      1.12996952103731      0.68031467416846
  H   4.92659725043829      3.33627971923797     -0.70040947629776
  H   1.01626282441133      1.76740727683175      1.86648462037768
  H   1.75583714742076      0.16588807855431      1.74795633268050
  H   1.32457597929626     -0.15089679019054     -1.23259119706162
  H   0.38618719691506     -2.02174618285131     -1.98654526121097
  H   -0.95041603458365     -3.37368111744929     -1.03991375745200
  H   -2.24653403398508     -3.40649723898839      0.71046176176688
  H   -3.69574193935440     -1.81455143062758      1.34982395673234
  H   -4.13536289822252      0.20808936698756      0.17524843056907
  H   -2.69975634991082      1.95392465112680      0.04040609665528
