14
Coordinates from ORCA-job orca
  C   2.12098432536886      0.05470509157459      0.08362547857674
  C   0.63065556059538      0.00462690395874      0.02656755947199
  C   -0.18381873594371     -1.06312335345917      0.13393581878448
  C   -1.65407220655814     -0.74579289769030      0.03119068747052
  C   -1.66216889220730      0.76630354699380     -0.17978490578033
  O   -2.61577644206915      1.48152711342544     -0.32650456059912
  C   -0.17766064564844      1.22623466539441     -0.17155772681550
  O   0.20779364233113      2.36469913845509     -0.30377734279863
  H   2.55671403121410     -0.93326168128641      0.24759227217138
  H   2.52435482525199      0.47140860625033     -0.84518592866293
  H   2.44815498982873      0.72387016843325      0.88625461223080
  H   0.16841675414643     -2.07957832072290      0.28237516041167
  H   -2.21339952612005     -1.01238230379804      0.93610359513210
  H   -2.15017668018981     -1.25923667752881     -0.80083371959315
