21
Coordinates from ORCA-job orca
  C   3.42072627389051     -0.07292192470914     -0.73184914503628
  C   2.46269477419291      1.05669573308700     -1.03236835608163
  O   2.74059702945193      1.99011296684738     -1.75680378907688
  C   1.10164742838877      1.01674196600286     -0.39596859242764
  N   0.76647427814617      0.05137305848885      0.36004314530650
  C   -0.53841799466005      0.02339350705097      0.95465303531404
  O   -1.44827459022949      1.07357492488424      0.57449849389393
  C   -2.55721188371698      0.29659002472428      0.04169147865332
  C   -1.87576145012678     -0.73103354103652     -0.88240604282500
  C   -1.39464034320312     -1.19985291544224      0.52367224145088
  N   -2.76082770479459     -0.80700234494285      0.99576154943674
  H   4.36237461310227      0.10589432594871     -1.25089013475431
  H   3.58699094913795     -0.15314712359901      0.34617509195372
  H   2.98813184062784     -1.02705962016850     -1.04688987255385
  H   0.44590412998878      1.86072839665402     -0.62843663118927
  H   -0.39156237240610      0.03817114576694      2.04262721254007
  H   -3.37799397557117      0.96751515344122     -0.20312160594603
  H   -2.57298482250845     -1.43618407616996     -1.32907415328218
  H   -1.14036421243050     -0.36406598532712     -1.59669491878040
  H   -1.01992612752639     -2.19711527800877      0.74400659262046
  H   -2.79757483975352     -0.49240539349236      1.96637340078381
