18
Coordinates from ORCA-job orca
  C   -2.39802582216356      0.15771654925617     -0.67623365020717
  C   -1.53993996911142      0.27831503576093      0.59559633360150
  C   -0.08226303437336      0.01543290015825      0.36216133050889
  C   0.63942271209424     -0.98348099257495      0.88488284412281
  C   2.08048754761637     -0.96825591411331      0.45894237620356
  C   2.16255296961175      0.26707394057459     -0.45084156151768
  O   3.14988287291667      0.66953577939301     -1.01035689526846
  C   0.76508726487778      0.89891987054689     -0.52412528184541
  H   -3.45032581038250      0.35599010984621     -0.45373580907666
  H   -2.08224371548534      0.87088373762564     -1.44329837319152
  H   -2.32449264175440     -0.84730184660160     -1.10220146315495
  H   -1.66288698224199      1.28873572662799      1.00972701098668
  H   -1.91224744038531     -0.41689573786279      1.35580958886412
  H   0.23645197323701     -1.73365822596654      1.55732674012717
  H   2.38994500413208     -1.86128012900820     -0.09956435236960
  H   2.79189519847579     -0.86931234932672      1.28887321297775
  H   0.80665390569097      1.94245570867214     -0.18478998547176
  H   0.43004696724523      0.93512583699229     -1.56817206528928
