16
Coordinates from ORCA-job orca
  N   3.08143758840623      0.42661974448807      0.16808586225461
  C   1.89510095759630      0.09383455768572     -0.08178751497128
  O   1.27506040992930     -0.92285041354716      0.56387095857029
  C   -0.07552013816956     -1.05228868001817      0.12976140675838
  C   -1.06773753838023     -0.61456695795066      1.21366144513046
  O   -1.24224706956051      0.78175084043606      1.02585223246423
  C   -1.28658253281936      0.98405681330121     -0.37798081598052
  C   -0.22742609971981      0.04111304779574     -0.96139636009970
  O   1.06205155192959      0.65124738985466     -1.00954975189763
  H   3.35917546486453      1.20408694396009     -0.42572292486677
  H   -0.23477837987113     -2.07541186914390     -0.21657123279259
  H   -0.68785101511167     -0.79160731119688      2.22079882627574
  H   -2.02130320032442     -1.15210287823716      1.08286731606187
  H   -2.27837081711978      0.72404714759681     -0.78337260373549
  H   -1.07410822495315      2.03279234676691     -0.59135396633426
  H   -0.47690195669634     -0.33072172179132     -1.95716287683734
