15
Coordinates from ORCA-job orca
  C   -2.08148769670041     -0.29170724277347     -0.56291991999099
  C   -1.15650537606036      0.78966774285088      0.02340226689208
  C   0.23927558528954      0.30077523591955      0.19977839871854
  C   1.11955799092081      0.17721897231151      1.21710975022169
  C   2.26242810352122     -0.42692542245805      0.40652771469957
  C   1.23363675192431     -0.27630472100365     -0.76166809973570
  O   1.25171768333685     -0.52581420207252     -1.93667416879582
  H   -2.15838453669846     -1.14972186684204      0.11128234473203
  H   -3.08756644897329      0.10553807798228     -0.72286801773871
  H   -1.69617915014590     -0.64762495442746     -1.52176906757217
  H   -1.54749886767571      1.15353875053612      0.97986798251302
  H   -1.14083323732406      1.64975556984967     -0.65819546296930
  H   1.05016016052014      0.42634329864509      2.26978319967436
  H   2.53926108008320     -1.45873289365215      0.64735963620439
  H   3.17241695798212      0.17399165513424      0.30898244314703
