16
Coordinates from ORCA-job orca
  C   3.39375835277878      1.68599207702423     -0.92577937522490
  C   2.43790926301903      1.03408285392247     -0.58824060841623
  C   1.30724859081228      0.28147709672118     -0.19944693581546
  C   1.31567624094003     -0.88181299308809      0.55234426774201
  N   0.01878208644608     -1.28439347700025      0.71310096696571
  C   -0.83679151270941     -0.41094672923563      0.07661983963408
  C   -2.32270784665287     -0.60266976925156      0.07869646358556
  O   -3.02803986747785      0.62414243973042      0.03615448196186
  C   -0.06467415043171      0.57059878650371     -0.49807041140351
  H   4.23795825363406      2.25933243549746     -1.22218162765167
  H   2.13876826978823     -1.43136371600776      0.97883730083759
  H   -0.27153993178212     -2.09198703206303      1.23785285344892
  H   -2.61287704965068     -1.21042072401902      0.95424597911202
  H   -2.65300628688920     -1.15661515989394     -0.80842006558887
  H   -2.63178183424926      1.21007324092436      0.69097382739395
  H   -0.42868257757538      1.40451167023545     -1.07668795658104
