20
Coordinates from ORCA-job orca
  C   3.47286730290771      0.03186795536018     -0.02887288907866
  C   2.01287994496923      0.15716754030082      0.40955693117169
  C   1.07828285831810     -0.64974139672240     -0.49614201657393
  N   -0.31444445025528     -0.55281918517515     -0.08975592025377
  N   -0.84830497853019     -1.37784832460650      0.80267460185240
  C   -2.08991311087317     -0.91233650075837      0.95334588175880
  C   -2.26364242616585      0.21285038871228      0.12849350193730
  C   -3.45668456108834      1.09147711181903     -0.06192531258129
  N   -1.11301488581460      0.41994841958745     -0.52248538361373
  H   3.80947781349722     -1.00991944149009     -0.00102273666264
  H   4.13006025152613      0.60969376910384      0.62646252454187
  H   3.61693153217549      0.39968909922830     -1.05038114422649
  H   1.69734249890139      1.20589933064850      0.39337739132218
  H   1.89251714315786     -0.19688859365184      1.43908495717201
  H   1.13295625243797     -0.29432159274382     -1.52784374965199
  H   1.33865383197485     -1.71065031485193     -0.47621172538074
  H   -2.78948249912209     -1.39447557442705      1.61871023508186
  H   -3.48997157632187      1.89072604390446      0.68689668065088
  H   -3.43319115723373      1.56114043478112     -1.04741653370537
  H   -4.38332078446083      0.51854083098116      0.02849270623961
