25
Coordinates from ORCA-job orca
  C   -3.81375698158437      1.96919682954093      1.48330890952844
  C   -2.80010498594210      1.42242938537208      1.13409588796042
  N   -1.67862585236223      0.79957974059648      0.72128374587089
  C   -0.46291999413997      1.26796265350453      1.21128169918386
  C   0.80407322200428      0.99275684488898      0.84012045211458
  C   1.31549286931894      0.26270278089162     -0.32102206300958
  N   0.85561597419893      0.18214458528529     -1.51206150686165
  O   2.49672943031894     -0.34059892448153     -0.02101361993011
  C   3.12703424537213     -1.03443396431510     -1.09403065742797
  C   3.59386132458682     -0.10544076334013     -2.20647387795306
  O   3.99018619463761     -0.50668874401169     -3.26844116589099
  C   -1.86454796472634     -0.54234605875258      0.12251519655309
  C   -2.00629429109125     -1.62862029776100      1.18834740030857
  H   -4.70779338091277      2.45871802575311      1.78206112137461
  H   -0.60088359175236      1.95678315558431      2.03922810785758
  H   1.57593596182220      1.39923835691114      1.48467770277750
  H   0.01674172560618      0.74659836315516     -1.61771875830801
  H   2.47574791823778     -1.80205165984080     -1.52059743928657
  H   4.00436312223966     -1.51371833491424     -0.64856830480701
  H   3.59340806505929      0.97332857710507     -1.93609308414124
  H   -2.76355122821612     -0.48441014273688     -0.49509970013742
  H   -1.02492611147475     -0.75540525158488     -0.53713956559282
  H   -1.10345496494618     -1.69314496716321      1.80164975365539
  H   -2.85870645835042     -1.42450435570547      1.84189104095542
  H   -2.16362524790389     -2.60007383398116      0.71067172520609
