13
Coordinates from ORCA-job orca
  N   2.42754249510824     -0.33089717363806      0.12746739086512
  C   1.23717080525052      0.23556775784323      0.11387677687540
  N   0.96175010947473      1.51530201303629      0.17485915909211
  C   -0.41392342619458      1.53869379684863      0.12405874283998
  C   -1.09753787379446      0.33357916164644      0.03066279613448
  C   -0.04083248773526     -0.65578041992847      0.01495051531710
  N   -2.48608797569328      0.22468662888642     -0.02727962745186
  N   -3.02791606247538     -0.90365509689459     -0.11152319199610
  F   -0.97971233867051      2.70430335740511      0.16896373568441
  H   2.47444138268699     -1.33888346207090      0.07278286087239
  H   3.27389570090767      0.21392094113773      0.19090081777362
  O   -0.00557984407595     -1.86991771967359     -0.05055072498779
  H   -2.32321148478872     -1.66691878459822     -0.12695425101886
