14
Coordinates from ORCA-job orca
  O   2.45033729856930      0.65683442003619     -0.26513734146439
  C   1.13651251911115      0.30172984749695     -0.28707041111594
  C   0.34003962194536     -0.19310024169570      0.91915451816694
  O   -1.01119407403772      0.21600875433059      1.01605397661321
  C   -1.60487289919546     -0.18330926919695     -0.17234588237537
  N   -0.58087709391091     -0.53653413063523     -1.14446615660260
  C   0.52200054169544     -1.07364648302537     -0.28360623525190
  N   0.23578636624102      0.72461387217978     -1.35596603246693
  H   -0.31962768147760      1.55705161808904     -1.13559561314061
  H   2.56865138845772      1.43121214258742      0.29689074043584
  H   0.82768870032322     -0.39114374843039      1.86392340865037
  O   -2.70113020148530      0.51036989234012     -0.58949324750308
  O   -2.75119058249010     -0.93316499451157     -0.11363249955545
  H   0.88787509625388     -2.08692167956487     -0.36706022439007
