17
Coordinates from ORCA-job orca
  O   3.00026177152626      0.45077221010063     -0.61499807673676
  N   1.96650390896692      1.13676688850437      0.04697092042231
  C   0.92892860781805      0.40848995757169      0.14274783027182
  C   0.71331742753573     -1.02348511152721     -0.29343213561660
  C   -0.61559451060561     -1.35054578786508      0.36860628301324
  C   -1.81656647473399     -0.49349084443001      0.18312772750955
  C   -1.48630807060118      0.91700409070928     -0.27593054967657
  C   -0.34028074649716      0.88000816011475      0.77881366895614
  N   -0.95989571455934     -0.36574212175041      1.42884424931583
  H   3.72562446146784      1.08295634015240     -0.57919150010721
  H   0.71439074875178     -1.12747956226919     -1.38360763739621
  H   1.51877401080642     -1.66031085537032      0.08581978540400
  H   -0.80724996326251     -2.37940588653088      0.65672696562318
  H   -2.81567025743492     -0.91798297346346      0.22436262351725
  H   -1.22302020653548      1.09008782867291     -1.32393362994570
  H   -2.26637716332788      1.62159892347862      0.01805904469377
  H   -0.23683882931493      1.73075974390191      1.44799943075197
