18
Coordinates from ORCA-job orca
  C   2.14722319108219     -0.70575573847228     -0.39888883061304
  C   0.96632138304167      0.01029788250522      0.19743120486782
  C   0.01381001484810     -0.73116491219856      1.14041595880254
  C   -1.32467629216079     -0.00988995108118      0.99429372468372
  C   -1.99712905989220     -0.06726903054680     -0.35499345017484
  C   -1.17419163153341      1.14136169626674      0.02208693198342
  C   0.24842111453664      1.12697594177053     -0.44019324995555
  O   1.19335759686392      1.36753091705813      0.62047846706711
  H   2.78351789842390     -1.12544116097952      0.38793548642885
  H   2.75209427975976     -0.01581310834264     -0.99217313954690
  H   1.82304010605810     -1.53216477818386     -1.04018921236379
  H   -0.05259351423261     -1.79184251530682      0.86803183274351
  H   0.39011920778348     -0.68322107837360      2.16801528433718
  H   -1.95443677623554      0.09841778540539      1.87019458034905
  H   -3.07483201370549      0.04894398498682     -0.39492515238802
  H   -1.60157107510165     -0.75022694275339     -1.10284528201316
  H   -1.67180020133920      2.09168242645913      0.18536024790449
  H   0.53332477180313      1.52757858178669     -1.41169840211239
