18
Coordinates from ORCA-job orca
  C   -2.53093547539313     -0.69713938766459     -0.39260735603075
  C   -1.72269314222944      0.56970910395880     -0.55449183897835
  C   -1.30076090443816      1.37999709510411      0.63427554334125
  C   -0.24989753209187      0.63303911552318     -0.17050383923879
  N   0.31300491927764     -0.51416749866164      0.44610856400201
  C   1.52348436877675     -0.81979446753062      0.31840079085349
  O   2.41765761502627     -0.05743670105395     -0.43986059279598
  C   3.71999221335718     -0.43828155167066     -0.48474790176552
  O   4.20405364533281     -1.38270318639527      0.06915056066286
  H   -2.20548167083674     -1.26275453532304      0.48228195681844
  H   -2.42644991766893     -1.34555478657726     -1.26875140904408
  H   -3.59395108512887     -0.46093010257678     -0.27639747113761
  H   -1.95608454596464      1.14129033414422     -1.44941602164724
  H   -1.51767039207756      0.97768750996721      1.61748763863389
  H   -1.30181883915641      2.46258088056525      0.57419822433040
  H   0.39337883558424      1.23063303991227     -0.81039884835568
  H   1.97149156405551     -1.69210348585162      0.78070644791298
  H   4.26268134357534      0.27592762413039     -1.12189244756134
