23
Coordinates from ORCA-job orca
  C   -3.68502500265268      1.47938423454885     -0.66355146684616
  C   -3.31289364208274      0.81477625437508      0.66598945355997
  N   -2.39514266306503     -0.30616965601919      0.53156746328238
  C   -1.04892311523497     -0.15139540051696      0.45443427833661
  C   -0.13991079651826     -1.09609426610814      0.08878021073491
  N   1.18697274009740     -0.78151064513624      0.11328493374456
  C   2.07683070345784     -1.66087856902541     -0.21409641503573
  C   3.50545229091516     -1.42005441524218     -0.23292617639087
  C   4.21983775759931     -0.28667289633912     -0.02204454534132
  C   3.70730966184309      1.05839310595136      0.26032440991011
  O   4.44528648378033      2.01186744618059      0.43911753792451
  H   -2.79584515831560      1.87047029141182     -1.16610471325430
  H   -4.37753700747188      2.30988984909459     -0.49468831916608
  H   -4.16948866126031      0.76620543269830     -1.33767335441970
  H   -2.84651873900109      1.54490317288589      1.33517941556780
  H   -4.21393880104176      0.45594119663765      1.17395380903043
  H   -2.78276418246433     -1.17115787369511      0.18460472960441
  H   -0.67730802012596      0.82670179419677      0.74689750419451
  H   -0.46534773604938     -2.09662201455057     -0.21811339854789
  H   1.77119384280544     -2.67794190794477     -0.49846807003140
  H   4.08324317527770     -2.31417667022329     -0.46098310869573
  H   5.30492159219694     -0.33754309732540     -0.07701234567942
  H   2.60959327731081      1.16168463414548      0.29253616751840
