19
Coordinates from ORCA-job orca
  C   -0.45410621206456     -0.27180970804420     -0.77336074855052
  C   -1.82406379110032      0.40345037913331     -0.84513123680068
  O   -2.70248681184994     -0.34886646359954     -0.02075493527563
  N   -3.99328991553457      0.28235418490139     -0.01725946640037
  N   3.09902462058301      0.20563718311017      2.46964154396229
  N   3.71539778866398     -0.27178489215903      1.51220900171467
  O   5.04442592871699     -0.40973305885044      1.88944711705066
  C   1.33803690344555      0.27559117765349      0.87086886082008
  O   1.76007294724148      0.39606098717201      2.18847887762246
  H   0.20997695780174      0.21923537923849     -1.49260452481006
  H   -0.57364207384730     -1.31221524827893     -1.10319725575700
  H   -1.76682243399762      1.44239217177713     -0.49320185408178
  H   -2.19298222814898      0.41886592385526     -1.88034292754602
  H   -4.17713838507716      0.45056021400062      0.97180193004680
  H   -4.62752291127197     -0.46969740984796     -0.28557045742917
  H   5.43496253510249     -0.80730382581689      1.10155747193791
  H   2.01494618871734      0.68551432448418      0.12925098846752
  C   0.14463828491686     -0.23987043893783      0.60300058152764
  H   -0.44942639229702     -0.64837987979123      1.41483303350119
