20
Coordinates from ORCA-job orca
  C   2.35988151456214      0.32581942248366     -0.67510856190727
  C   1.48299406169919      0.48380359201762      0.58129018916884
  C   0.17628460571976     -0.24142270916717      0.49126590896590
  C   -0.15191892152493     -1.43819604758473      1.00061769634616
  C   -1.56131872928250     -1.77662239251347      0.60503463968016
  C   -2.00153203798583     -0.55752737592755     -0.20989025467018
  O   -3.07600380874180     -0.34638008429739     -0.73364371575129
  N   -0.91170101658397      0.30083261734940     -0.23793102022868
  C   -0.97631812861061      1.60197046487570     -0.86713779920366
  H   3.30677885234034      0.85959628465073     -0.55320901067204
  H   1.86718331722697      0.71977660619113     -1.56803868182035
  H   2.58140223189009     -0.72944644823539     -0.85578817673811
  H   2.02152543256015      0.09300853213495      1.44932278198491
  H   1.30968701252971      1.54853014222199      0.77671265302964
  H   0.49849862096178     -2.06078365716533      1.59684168313672
  H   -2.24371352266224     -1.91494372830335      1.45120703587704
  H   -1.64476108483066     -2.67671764122495     -0.01498073954267
  H   -0.23830340532917      1.70428667353905     -1.66887840006550
  H   -1.97641725367225      1.69520921581650     -1.29369618515396
  H   -0.82224674026616      2.40920853313860     -0.14339804243563
