17
Coordinates from ORCA-job orca
  O   2.77433333403744      0.40164316531530     -0.30126815281139
  C   1.88899255033272     -0.66425005429587     -0.39411639954796
  O   1.02662049092465     -0.63108888001403     -1.49698647602418
  C   0.45632544332017     -0.42601738849898     -0.16284489775420
  C   -0.51682068320069     -1.42681988043114      0.36082259684308
  C   -1.49032512800960     -0.82035770977803      1.04825304489432
  C   -1.33429801562899      0.66699267994447      1.02594508439901
  C   -1.44095477049951      1.30161382522379     -0.34604931551036
  C   -0.08544638915147      0.92980382483022      0.20539470418293
  H   3.62411441458576      0.07188688696250      0.00233083549216
  H   2.33691300799616     -1.63560258679522     -0.17064398444111
  H   -0.43093054573406     -2.48656276379496      0.15489962495741
  H   -2.32008718401968     -1.31867019641316      1.53643181192157
  H   -1.57985237543072      1.25596546709941      1.90229915115001
  H   -1.67090361144804      2.36072301127619     -0.39431892773630
  H   -1.85573603183102      0.70710851624139     -1.15295372255271
  H   0.61805349375688      1.71363108312813      0.45476302253773
