17
Coordinates from ORCA-job orca
  O   2.68135830689705     -1.15593775817883     -1.15994687001906
  C   1.79793532857517     -0.71070974938892     -0.47210544082951
  C   0.93102389572680      0.52278103125047     -0.77505681198492
  C   -0.37073245641443      0.28204273163462     -0.00958581304283
  C   -1.69998871094410      0.14468502381935     -0.71110608104076
  C   -1.42997609316595      1.33180499759712      0.17944602616166
  C   -0.02957700404059     -0.69027869026853      1.08361339971966
  O   1.12239187705626     -0.30863499219475      1.83380974776116
  C   1.28084245412555     -1.31493711808223      0.81059324847277
  H   0.80275014389834      0.63783248288780     -1.85268333534812
  H   1.45631750305993      1.40773691585403     -0.39910532481614
  H   -2.39053467402805     -0.61609058078688     -0.36137100609643
  H   -1.72155001137049      0.30195860322566     -1.78400591687648
  H   -1.93526102704990      1.38396251635984      1.13804372529111
  H   -1.26982550151479      2.29613560259044     -0.29057291471397
  H   -0.81043679640238     -1.20724467165141      1.63677896608879
  H   1.58526476559158     -2.30510634466777      1.13325540127306
