15
Coordinates from ORCA-job orca
  C   -2.86292709252993     -0.07809285425127      0.12656450354244
  C   -1.38130562530005     -0.08916472771392      0.45857320080844
  O   -0.69244206163885      0.10958003373599     -0.78107057902591
  N   0.69311590546398      0.13112545730305     -0.75153008838195
  N   1.15742803078867     -0.02636489912066      0.39623536162532
  N   2.49985469721736     -0.00620244142660      0.44009181250393
  N   3.34443803694028      0.16468117117272     -0.65139082070781
  H   -3.15520686043502      0.87588408880743     -0.32018566971250
  H   -3.11044770071700     -0.87702699165735     -0.57729518714755
  H   -3.44773496435538     -0.22683693859424      1.03924475983632
  H   -1.11607528190149      0.70568759508954      1.16688650183107
  H   -1.07215621496522     -1.03998888768608      0.91051453165541
  H   2.90401660918293     -0.13406985910626      1.34802043264829
  H   3.12981357460914     -0.55774223385858     -1.33997098438346
  H   3.10962594764057      1.04852948730622     -1.10497177509204
