16
Coordinates from ORCA-job orca
  C   1.89261964289945      0.88265778653650      0.55704225723168
  C   1.12356234317725      1.80831798615105      0.38685158105449
  N   0.02591648946823      1.96133641399454     -0.44356824484201
  C   -0.43079219924071      0.55528332214538     -0.74324997646398
  C   -1.40664989340622     -0.10730213045816      0.27462601716567
  C   -0.42696454655704     -1.28667849936088      0.48334944302945
  C   0.58258433949986     -0.65878395526101     -0.52383491182633
  N   1.97447899426564     -0.37523932156077     -0.01580024541234
  H   -0.74150611778590      2.51664651381416     -0.07901765911451
  H   -0.81578057974094      0.56445810031988     -1.76696672348658
  H   -1.55827566009977      0.49959110422467      1.17053033457385
  H   -2.38232389592339     -0.37016689313659     -0.13969785309252
  H   -0.80247693780615     -2.27019404927649      0.19282726660634
  H   -0.02697266308086     -1.35015369905488      1.49832026020003
  H   0.69907269408036     -1.24438614059663     -1.44024295190812
  H   2.29350899025018     -1.12538753848077      0.58883240628487
