22
Coordinates from ORCA-job orca
  O   5.25844179353616      0.72850227779593     -1.35209502872463
  C   4.72183912289505      0.24425193915405     -0.37198314334207
  C   3.32488094932262      0.23715804423905     -0.11310816490017
  C   2.13683424163145      0.20495267894415      0.15268873538929
  N   0.83710231035031      0.19807922047848      0.39440296758181
  C   0.33255313278841     -0.51671056543622      1.50905292234411
  C   -0.85926350805907     -0.38412103820987      2.10959510076722
  N   -1.89469527685857      0.52935081293098      1.97008210618417
  C   -2.78526886637859      0.55341758493751      1.04947223764674
  C   -2.95957052768017     -0.28562072737641     -0.13099626897227
  C   -2.08274466199756     -0.68305676067986     -1.08124612597174
  N   -0.80278729762188     -0.27417349690079     -1.34608482112723
  C   -0.06924280357654      0.73675595393967     -0.64498859632622
  H   5.31626890669245     -0.24926772213154      0.42660096330688
  H   1.03974101425164     -1.23241305515765      1.90810026992220
  H   -0.99833191887017     -1.02724962294250      2.97737789996068
  H   -3.58900474538538      1.27920062810154      1.21456695661406
  H   -3.98644055214370     -0.60057569690453     -0.29827297478930
  H   -2.44562827627732     -1.37986188258514     -1.83285146469987
  H   -0.29697080322616     -0.79475156935867     -2.04368499359577
  H   -0.76566537369149      1.43642641616576     -0.18820507688122
  H   0.56795414029852      1.27970558099606     -1.34379350038668
