22
Coordinates from ORCA-job orca
  O   3.60172256323637     -2.61190879307694     -1.38966458101653
  C   3.88818379558737     -1.80604302643570     -0.53106549193038
  C   3.06342215614415     -0.69564452460802     -0.13915478245088
  C   2.40326508952645      0.24830364671637      0.22809132469584
  C   1.57903727095531      1.37239120852686      0.65529477534977
  C   0.12051869003183      1.26337546510131      0.22643639552803
  C   -0.86915324092844      1.14919634547071      1.07379419990679
  C   -2.03294073534334      0.81200069399997      1.56194115925749
  C   -2.59754471337613     -0.50122183306059      1.23821503024258
  C   -2.51570352970541     -1.06532584606688      0.01843010824931
  N   -1.96708989307993     -0.66320341578106     -1.20839234979676
  C   -1.08457406886980      0.29115907894074     -1.73286919534421
  C   -0.18269559892348      1.14050166251158     -1.20436650534095
  H   4.84279888709266     -1.87806605721671      0.03008196835155
  H   2.01029794469840      2.29305447801187      0.23541920206641
  H   1.63738175801653      1.47717709647674      1.74320012340989
  H   -2.65768531723339      1.52664375005820      2.09539390807315
  H   -3.21346502536473     -1.01630773875044      1.96805746357491
  H   -3.02762863047003     -2.01488567782512     -0.11312279483155
  H   -2.29775795827174     -1.26293009019634     -1.94530807671965
  H   -1.14142978491805      0.26863584964243     -2.81779458778922
  H   0.44104134119541      1.67309672756104     -1.91681729348556
