24
Coordinates from ORCA-job orca
  C   3.31774214623467      0.92805177544830     -0.55841897153896
  C   2.11323409002948      0.37548785429769     -1.30799536802067
  O   1.73484490876542      0.88170630667124     -2.34010153378799
  C   1.39171130351993     -0.82486797272964     -0.70597041620854
  C   0.52530103496568     -0.42372462140334      0.51288157353961
  C   -0.65445043790105      0.40833414632467      0.10662730100739
  C   -1.96912727276128      0.21959430068493      0.29902679490346
  C   -2.96427029317166      1.20198557086049     -0.27641367157489
  C   -2.66622344820830     -0.93064333972081      0.96425485414341
  O   -3.80962651397555     -1.21320912506846      0.70735595926655
  O   -2.07957724319854     -1.70843758846193      1.92529673528686
  O   -0.71730351596634     -1.29965158599419      2.24850861522543
  N   0.07978055279139     -1.64795912626514      1.16723227352782
  H   3.53942591749709      0.38893627250563      0.36483428941650
  H   4.18956425050799      0.88049527846025     -1.21713282706463
  H   3.14740156840189      1.98352391299367     -0.32919084305209
  H   2.13934183055813     -1.55709679976567     -0.37483840932451
  H   0.75971852181139     -1.28275413185414     -1.46837589081230
  H   1.14012553045563      0.19260512432294      1.19351593495737
  H   -0.37213422450704      1.29766442426401     -0.45250927023313
  H   -2.45276068105708      2.04100689688658     -0.75085107837783
  H   -3.60404282554238      0.70943658525810     -1.01302321193602
  H   -3.62867776366385      1.58643811741297      0.50350565169412
  H   0.84000356441439     -2.20692127512816      1.54669350896303
