10
Coordinates from ORCA-job orca
  N   -2.37820543960088      0.06572032401623      1.87067733918992
  C   -1.85040646440229     -0.31466134060681      0.90909843909281
  C   -1.19164110274559     -0.76914050449648     -0.26098661738800
  C   0.05647493710947     -0.37483545141312     -0.59845901084184
  C   0.87129611177784      0.53464116446685      0.16352814592869
  C   2.08586952380389      0.89972674887910     -0.21990348297845
  O   3.14846250509277      1.22462287992067     -0.54748177211208
  H   -1.73438882349622     -1.45974499612801     -0.89452116798161
  H   0.48139689956384     -0.77357535632099     -1.51427649356544
  H   0.51114085289717      0.96724753168256      1.09232462065600
