23
Coordinates from ORCA-job orca
  O   1.37919483735626      1.05306144219896     -1.93587626977657
  C   2.17640090296791      1.66198261693151     -1.26439413139594
  C   2.08496091713481      1.91059483583744      0.22213993217194
  C   0.91032932491415      1.24617314048943      0.95650297310319
  C   0.87719830832148     -0.19918091735926      0.82586737854492
  C   0.53730970467626     -1.32073449136176      0.54466880158716
  C   -0.20513678998810     -2.47695381490887      0.06828533650823
  C   -1.43771613617505     -1.94700795476829     -0.74952247222965
  C   -2.29443124875055     -1.01684066255514      0.06805878877241
  C   -2.06328533818572      0.28373350461184      0.29947710979203
  N   -1.16360066248581      1.12441494671966     -0.37295794077464
  O   -0.33744616439395      1.88234020434787      0.49870248425734
  H   3.08014422716143      2.10827978618811     -1.73651267633194
  H   2.02592937900331      2.99895172580884      0.35983037039306
  H   3.04048392541043      1.60605916124897      0.67112357459842
  H   0.97532574761942      1.53295144028216      2.01297495941483
  H   -0.54927478844182     -3.09106902857271      0.90846997279543
  H   0.40854463449025     -3.12015001657407     -0.57185768109845
  H   -1.05067930643643     -1.46665737050923     -1.65296549409559
  H   -2.02194095262320     -2.81104805217650     -1.08153620936087
  H   -3.13176798671095     -1.46532899925055      0.59528208596516
  H   -2.67252262930834      0.82661335327037      1.01789435641110
  H   -0.56801990555579      0.67981415010122     -1.06491124925156
