17
Coordinates from ORCA-job orca
  C   -1.94842495402101     -0.69925830334373     -0.50659157246745
  C   -1.02204911046322      0.18311516018222      0.29819534843304
  C   -1.44029433348035      0.67651172817268      1.61800639649758
  O   -1.50662241568746      1.54045635722800      0.48774785187605
  C   0.42311461540092      0.05983773755066     -0.02244491626835
  C   1.51207690835768      0.16268265054318      0.80927828498468
  N   2.61197933048767     -0.00980327328672      0.00032081359333
  C   2.15261796363496     -0.21549871942938     -1.26816532312177
  N   0.84331432654512     -0.18240926160994     -1.31663034890013
  H   -1.75086984009941     -1.75563127538855     -0.29854440300095
  H   -1.78818917374331     -0.53406068046224     -1.57401949314648
  H   -2.98833441049867     -0.47439628287010     -0.25943262087090
  H   -0.69885153499346      0.94529657638703      2.37007320020893
  H   -2.39743058783607      0.35048445017615      2.02595463875719
  H   1.60694892269327      0.32951958861209      1.86891147080081
  H   3.57425038106930      0.00747679365286      0.29413987473431
  H   2.81676491263406     -0.38432124611419     -2.10325820210989
