23
Coordinates from ORCA-job orca
  O   4.08062678249106     -0.06723626482118      1.48673731819371
  C   3.23723782846022     -0.18819396599394      0.64142663509207
  C   3.18108895193424     -1.21945526441936     -0.48379547464591
  C   1.89276197988452     -0.88105635356003     -1.18726698306291
  C   1.22029533753971      0.16040129793458     -0.65853040740493
  C   -0.06830502154767      0.76024161502151     -1.12828630302716
  C   -1.26781928977238      0.45200636585944     -0.27601704245928
  C   -1.35210935271933     -0.15870382294051      0.92074284618015
  C   -2.75222513959245     -0.26853143623349      1.46711355478798
  C   -3.59885612305621      0.39408236253948      0.38299606080478
  O   -4.78995779236530      0.54250383549069      0.36760422632468
  C   -2.61534599177875      0.84928998406504     -0.73170537866202
  O   -2.91894749612151      1.40541104031825     -1.76132403197962
  C   1.96484819729200      0.69594589988755      0.49968564921470
  O   1.67356720582080      1.63060963783306      1.20955815678940
  H   3.19640414829585     -2.23804636490002     -0.07853108936306
  H   4.05883987298460     -1.13096545611672     -1.13484522239578
  H   1.55618987317935     -1.43558842566514     -2.05816061151892
  H   -0.28833430737042      0.45526662724908     -2.15734722856627
  H   0.03966308050223      1.85295191381463     -1.15913735027498
  H   -0.50032943637395     -0.54255467293523      1.47166700407751
  H   -3.06992608205100     -1.30738351925787      1.61800089903162
  H   -2.87937022563562      0.23900496683017      2.43009677286422
