21
Coordinates from ORCA-job orca
  C   2.75433473924010      0.17119427681208      0.22904271515252
  C   1.47022738333132     -0.23735552529363     -0.49903327958824
  C   0.19159239678964      0.00337545687884      0.31185926950321
  C   0.00078415031618     -0.96848881881667      1.47701824031201
  O   0.83302417107707     -1.46774609563714      2.18247610796609
  O   -1.32650006516556     -1.23192810355807      1.63680134171432
  C   -2.10478196342533     -0.51125405802035      0.66741852699283
  C   -1.13156876403929     -0.13663798851480     -0.45849698550674
  C   -1.56078979875898      1.08505063940279     -1.26564197073289
  H   3.63218733444235     -0.02830491415550     -0.39246745910371
  H   2.86129203356498     -0.37927442637459      1.16516221653523
  H   2.74908148273939      1.24202401684373      0.46047787910564
  H   1.51833036396136     -1.29714046777585     -0.77608308415241
  H   1.38855936779579      0.32192602630909     -1.43898385926284
  H   0.23544667036651      1.00716821555355      0.76303488224367
  H   -2.52942298737612      0.38014236778035      1.14708817788140
  H   -2.92432206757736     -1.15797829411276      0.34712969758356
  H   -1.04094783723226     -0.99900501695408     -1.13192497465457
  H   -1.65893413793747      1.96568206080006     -0.62168541610893
  H   -0.83233184970965      1.31949318551401     -2.04677661774818
  H   -2.52525762240267      0.91905646331893     -1.75641840813194
