23
Coordinates from ORCA-job orca
  O   5.64838320499125      1.02469121528398     -0.79464365082787
  C   4.63300055029865      0.79514306531687     -0.17600087143897
  C   3.33083069226251      0.65641126248940     -0.77458969972664
  C   2.22283257495074      0.52939665104391     -1.24001948170719
  C   0.89781325839893      0.36395275767219     -1.83025789223624
  N   -0.16647905583285      0.09240800724815     -0.85164354411605
  C   -0.79102376541892      1.21876753345205     -0.36389550608380
  C   -1.75666347672460      1.43902523426561      0.57168645167478
  C   -2.53852270262999      0.66082946535069      1.46431307473639
  C   -2.64740839033002     -0.66322362787172      1.75453289700775
  N   -2.00420115673465     -1.76658844205603      1.26456457783998
  C   -1.03031073771999     -1.99459290989253      0.32515878968882
  C   -0.28221154577031     -1.24425103079423     -0.52448530775499
  H   4.63832175517949      0.67187429873195      0.92574465251712
  H   0.63683602697703      1.26445737183929     -2.39369163030143
  H   0.92713815446547     -0.45355892581994     -2.55787529800722
  H   -0.41589864700718      2.10875337719480     -0.85401653459312
  H   -1.98394283056508      2.49948716003017      0.64292274017251
  H   -3.21895928384407      1.26171676186315      2.06102927528836
  H   -3.36949731468820     -0.94159695048579      2.51405667336907
  H   -2.32071314011640     -2.62130539481608      1.69080319275135
  H   -0.81173468897142     -3.05346672604492      0.25173775162022
  H   0.40240951882961     -1.84833015400097     -1.10543365987281
