23
Coordinates from ORCA-job orca
  O   4.90716901173676     -0.16318404662317      1.43025524447083
  C   4.78616588814496     -0.15367700433176      0.22520824931242
  C   3.54082243112841      0.06431320537718     -0.46408541618613
  C   2.51049987910700      0.24239338334211     -1.07271001469338
  C   1.24905185999065      0.46665720317431     -1.77042673658773
  C   0.00203127233704      0.13426337258262     -0.94600378715917
  C   -0.97543606225412     -0.53368958842185     -1.61822777066309
  N   -2.25540716099868     -0.95043069268073     -1.33957953419127
  C   -3.14865878552841     -0.81206288026784     -0.30876162148243
  C   -3.06643514043112     -0.22065891068489      0.91311014890616
  C   -2.04180913758314      0.42989611621603      1.64781803078037
  C   -0.74051160393994      0.75385631350603      1.41883421731524
  N   0.08847233670546      0.63169293008401      0.33344223290004
  H   5.65333896258307     -0.31483957519907     -0.44670793161713
  H   1.24491380032374     -0.11696986757308     -2.69494665068662
  H   1.23142172651954      1.52361479797370     -2.07952304270441
  H   -0.71052632787691     -0.80169876520041     -2.63351116422331
  H   -2.64254157254152     -1.47551418181027     -2.10561487923980
  H   -4.09464037521960     -1.27799646502686     -0.56198509181376
  H   -4.00167465629208     -0.29651530445030      1.46078232758335
  H   -2.35573260756698      0.72072567356840      2.64648386887408
  H   -0.20745774588921      1.21583034540643      2.24263247749843
  H   1.02694200754507      0.93399294103942      0.55053984360731
