17
Coordinates from ORCA-job orca
  C   1.82104021893922     -0.34560402648064     -0.48169632839113
  C   0.98741972339631      0.14841370247933      0.67408277849762
  N   -0.26555395637685     -0.46851405985061      1.11837684562022
  C   -0.94351535844113     -1.35846739356027      0.14446636398123
  C   -1.38009559127500     -0.47856561060769     -1.00190128829760
  C   -1.03632112578820      0.78925416164255     -0.78117578180397
  C   -0.31387480293958      0.90298886044134      0.52027043171049
  C   -0.60335851923066      2.02684195292187      1.37763266802758
  N   -0.82818212490917      2.95441102245264      2.03166314845270
  H   2.63148137843009      0.36268348343971     -0.67579934395026
  H   1.24757629821470     -0.47009215041534     -1.40118652226057
  H   2.27810961048337     -1.30779153708301     -0.22595518822702
  H   1.57947939459912      0.45935138619167      1.53348938366106
  H   -1.79455286623129     -1.84116307567185      0.63929996602186
  H   -0.26338465821913     -2.15974702227237     -0.17193890912216
  H   -1.88293700720722     -0.85699285283662     -1.88405924369381
  H   -1.23333061344458      1.64299315920931     -1.41556998022624
