22
Coordinates from ORCA-job orca
  C   3.64811240993432     -0.13157397732490      1.29801561096136
  C   2.45799309753902      0.74361451477047      0.93648781434499
  O   2.31594288376237      1.85188209278106      1.39420792609609
  C   1.43560693399717      0.15443163046780     -0.03220608574852
  C   1.93943739384472     -0.58408922511461     -1.25565464822620
  N   0.21584144581507      0.33093312316292      0.28046173053938
  C   -0.82246717627837     -0.18980491709624     -0.58397028806658
  N   -2.09148017641448     -0.17664703372681      0.12030221634574
  C   -3.01978944072389      0.49360455407793     -0.38475314958537
  O   -4.26374262754641      0.60354661357772      0.19930889071829
  C   -4.93348193100433     -0.50208500028268      0.65311224147608
  O   -4.66190462010993     -1.64062961468639      0.43283585932951
  H   4.40328342112307     -0.09123409257271      0.50508507670931
  H   4.09677064167951      0.24516166853492      2.21763665763116
  H   3.35824755480377     -1.17974643059300      1.42015700072982
  H   3.02802470872315     -0.61786099805310     -1.30432530967334
  H   1.57615301574458     -0.09245289849369     -2.16473229924061
  H   1.56513544200988     -1.61391314076903     -1.27750764780269
  H   -0.63157627568743     -1.23134785913312     -0.88106898043296
  H   -0.84963968082457      0.41231410932373     -1.51196142069734
  H   -2.96663113943989      1.11078802405196     -1.28794543259016
  H   -5.79983588094730     -0.14119114290224      1.22651723718203
