18
Coordinates from ORCA-job orca
  C   -0.32020527471756     -1.63965314966780      0.41228402677205
  C   -0.54663651648693     -0.17114969827852      0.10419902783965
  N   0.63215350711231      0.68148228274873      0.14503234994636
  C   1.51607434799262      0.55914630903128     -1.00640231644486
  H   0.92841380987015      0.61393753725989     -1.92371600863891
  O   -1.61497000281669      0.38981545483081      0.88076004804295
  C   -2.26801690187486      0.67181842476899     -0.34717960549605
  O   -1.24828512486581      0.04802635932970     -1.12615167040922
  H   0.08380876707868     -1.74376478762887      1.42059972769805
  H   -1.26518146145314     -2.18021096101809      0.34302300103367
  H   0.38672644147927     -2.07003081177238     -0.30428567947468
  N   1.28821673024102      0.53262273659577      1.39983378970140
  H   2.09339302690642     -0.38422765235819     -1.01141303398556
  H   2.22809028353183      1.38955344029649     -0.99481967558891
  H   -3.23935392585707      0.16530642989791     -0.44185797717107
  H   -2.36977944629840      1.74719277774524     -0.55507403686139
  H   2.11455979145827     -0.05983599036902      1.30479033919192
  H   1.60099294869990      1.44996929858804      1.70037769384461
