20
Coordinates from ORCA-job orca
  C   2.26853327605541     -0.80731464775821     -0.14063442212733
  N   1.10529768670359     -0.35508106847002     -0.89340468472194
  C   0.03465601930349      0.29347918590175     -0.10656123021920
  C   0.49866587558688      1.57679083047011      0.61077852612194
  C   -1.13080536310438      0.54648541518068     -1.04621306613636
  C   -2.17374290424114     -0.21368906892642     -0.73898794165649
  C   -1.86845014699033     -1.07929385058683      0.45482016902656
  N   -0.51270195521438     -0.67331360456913      0.86250115215191
  H   2.93126326664139     -1.36471346043861     -0.80940330777088
  H   1.92513976673057     -1.48774716129784      0.64292337905341
  H   2.86638749368817     -0.01137267832315      0.33647197854845
  H   1.38765750831606      0.26993326714870     -1.64273147834363
  H   1.26163110401505      1.35152272917473      1.36264514517148
  H   0.93435324683783      2.28443158344276     -0.10232413759420
  H   -0.34300934957218      2.07006986711816      1.10695225482369
  H   -1.05910812922159      1.23787742827939     -1.87832952008662
  H   -3.11268121048163     -0.26491640300541     -1.27776790668423
  H   -2.58927549334639     -0.93827882306553      1.27220809833503
  H   -1.91049901672369     -2.14704775673202      0.19080279795249
  H   -0.51331367498274     -0.28781978354312      1.79625519415592
