20
Coordinates from ORCA-job orca
  O   4.98052311970434     -0.01950836944804     -0.31460101296085
  C   4.46610695597822      0.56207583928015      0.61562690270543
  C   3.08365760554761      0.43817886260173      0.99343870101840
  C   1.92908972587393      0.36476947046343      1.34536616809463
  C   0.53132157085013      0.26750661263420      1.73644696191481
  C   -0.43986499057877      0.23709897346315      0.55198567252354
  N   -1.36055722091105      1.12112349014569      0.57234135219671
  C   -2.33120693841214      1.21544901954647     -0.44613417900954
  C   -2.90166946230459      0.24103422258655     -1.15893226903001
  N   -2.53909152154491     -1.13024394975112     -1.13374299977707
  C   -1.19678882238170     -1.48658166951490     -1.09272812641468
  C   -0.22355321499506     -0.85446640588718     -0.41580451341028
  H   5.04987838235954      1.25232661312215      1.25836566207853
  H   0.24777358477655      1.10553105446839      2.37816487638328
  H   0.40090181126398     -0.65623581142469      2.31885136765548
  H   -2.70439279152653      2.22369147890826     -0.59421235310312
  H   -3.70896688033974      0.48059392830610     -1.84389617561611
  H   -3.10575057554296     -1.71529640673415     -1.72465540623763
  H   -0.95348450043925     -2.37876046830705     -1.66552681356132
  H   0.77607216262239     -1.26828748445912     -0.47536081545017
