15
Coordinates from ORCA-job orca
  N   -3.20571114171799      0.01953280588651      0.27927045809889
  C   -2.15106538537154     -0.57721009057330      0.65628701947991
  C   -0.80272289249028      0.08273345303646      0.56852804470611
  C   0.14530285361273     -0.68220824225909     -0.38364507198910
  C   1.48689129561447     -0.02795928138801     -0.47495048688944
  N   2.55419351637794     -0.61763677095295     -0.11915552665497
  N   3.75743032761179      0.08448487640431     -0.19157518442410
  O   4.18778345990498      0.20550661630891     -1.30676674988285
  H   -4.02728976658339     -0.57574978636470      0.40622570270994
  H   -2.14521823584518     -1.60180168022924      1.05862996993783
  H   -0.35199824857419      0.10917806923302      1.56892986418907
  H   -0.94310875612781      1.11410225691272      0.23281265380050
  H   0.27300799413047     -1.71864793822058     -0.05980130463731
  H   -0.29890519117089     -0.69421372976025     -1.38721534888181
  H   1.52140817062888      1.00297244196619     -0.84757303956265
