16
Coordinates from ORCA-job orca
  C   -1.69748131688219     -1.32113636827578      0.51180367046514
  C   -1.51287101238178     -0.16007714331543     -0.11927749635499
  N   -0.30675029755030      0.38427699847247     -0.55779125028374
  C   -0.28450974879330      1.63902760959793     -1.12344388886806
  O   0.71777235867713      2.21051363162656     -1.49475077687614
  C   0.96432268504017     -0.32382915828817     -0.38740260892451
  C   1.61699786658591     -0.04906699781792      0.96849017240956
  H   -0.89162360217594     -1.99270214878453      0.77722499844083
  H   -2.69977997222628     -1.62457292846302      0.78278856863474
  H   -2.36314484639575      0.47789646192803     -0.34419324939673
  H   -1.29730330583352      2.07581527657660     -1.20706826450865
  H   0.77177326920472     -1.39029667877114     -0.52840678543185
  H   1.61924957501477      0.01357630657883     -1.19260951993504
  H   0.96161183699346     -0.33747880801444      1.79447369730839
  H   1.85305715242733      1.01355577711517      1.06372509241631
  H   2.54867735829556     -0.61550083016516      1.05643564090473
