7
Coordinates from ORCA-job orca
  F   -1.47005146520207      1.04858424583456     -0.37950672135237
  C   -0.77845852347872     -0.05478441419873      0.04359918617042
  C   0.67502536785952      0.11079923718546     -0.06467081823561
  N   1.74156561227111     -0.59119389731761      0.19621919170936
  C   1.93617132392030      0.68406844786390     -0.33560743311069
  H   -1.07510427039068     -0.92947967204172     -0.55201294753051
  H   -1.02914904497946     -0.26799494732585      1.09197754234941
