17
Coordinates from ORCA-job orca
  C   2.49381461063319     -1.53990271057894      0.65644570010755
  C   1.01602817809665     -1.23776031198375      0.49792303124901
  O   0.89954823092255      0.09379015096248     -0.00734057507587
  C   -0.33741277025281      0.59160846283384     -0.23256275955159
  C   -1.54846939431469     -0.06821758999725     -0.01640011685788
  N   -2.72304873108755      0.51780556572353     -0.27363349814656
  C   -2.68407393563875      1.75999842401117     -0.74650955994130
  N   -1.58583265127583      2.48457066564010     -0.99069274936593
  C   -0.42327202898409      1.89741456764713     -0.73251603887103
  H   2.62685188776544     -2.55530105233769      1.03984319624150
  H   2.95747567877288     -0.84039420955629      1.35646837825857
  H   3.00859585083436     -1.46047301920261     -0.30429702334801
  H   0.54246476754817     -1.94094176244033     -0.20053637195987
  H   0.49220199088886     -1.31531315391160      1.46023229600784
  H   -1.58449693285410     -1.08247346420834      0.36876419803794
  H   -3.63879227471893      2.23521048946711     -0.95512198150296
  H   0.48841852366465      2.46038094793145     -0.92006412528141
