14
Coordinates from ORCA-job orca
  C   2.10425317816975     -0.19250767703917     -0.11387279950728
  C   0.63812285140496      0.06208461324118     -0.06462223475573
  C   -0.05104310563277      1.19045586958428     -0.32205357266067
  C   -1.51357852942420      0.99412064281932     -0.14695138567003
  O   -2.36743269079512      1.83898866297204     -0.28877713502724
  C   -1.73037166825625     -0.46645974583733      0.25064048730395
  C   -0.31527361705613     -1.02905943529605      0.32526929597149
  O   0.01485152271893     -2.14637157250366      0.64937540986690
  H   2.67012689414150      0.71043626920210     -0.34853398334471
  H   2.44798827859692     -0.59996326747844      0.84237464379135
  H   2.32529098703245     -0.95938113188371     -0.86444940246033
  H   0.35818148632523      2.14973054476137     -0.61776822625103
  H   -2.25896672220097     -0.55793379444578      1.20309992575161
  H   -2.32214886502431     -0.99413997809613     -0.50373102300828
