17
Coordinates from ORCA-job orca
  C   -1.96836953142109     -1.36842869644576     -0.14186449178566
  C   -1.92582693622884     -0.05185387827202      0.05396307508170
  N   -0.86986658083062      0.78658959751803     -0.30287163881365
  C   -0.92308761824093      2.16357487155527     -0.26799302545168
  O   -1.85785585372523      2.79947648743372      0.16427669119045
  O   0.24374995847001      0.22825563225671     -0.91479448769845
  C   1.24493361530003     -0.13695312005119      0.06167461140606
  C   2.38369918947598     -0.78659365873839     -0.69905214552567
  H   -1.16653854370098     -1.90589917511768     -0.63055042322821
  H   -2.83643747467418     -1.92853246994939      0.17798786645709
  H   -2.72681038454646      0.51283487132019      0.51675299476642
  H   0.00327526515187      2.59463169257905     -0.68628761463608
  H   0.80115961035503     -0.82092771765188      0.79340854605024
  H   1.57609666250056      0.76639282897812      0.58860818843189
  H   3.17780206621349     -1.06854943965595     -0.00231081198366
  H   2.04346193508673     -1.68635188750502     -1.21783460507008
  H   2.80061462081462     -0.09766693825379     -1.43814572919069
