14
Coordinates from ORCA-job orca
  C   -1.90577708975262     -0.43343461521196      0.74948866455759
  C   -0.97974961098136     -0.00934444675087     -0.40908579635942
  C   0.41817220927960      0.18793657035535      0.04649997749510
  C   1.33439753015213      1.19198154100356      0.00659546741512
  C   2.40786980724544      0.41674616805989      0.72255719135754
  O   3.53129299871039      0.61377999488425      1.07949664218843
  C   1.35487831633775     -0.75465276787810      0.77747589649631
  O   1.28035821009253     -1.87527137655173      1.18990446328279
  H   -2.91632566419471     -0.61529598994094      0.37602548449818
  H   -1.96047434624289      0.34754425846333      1.51258147593597
  H   -1.53862543039930     -1.34864947681522      1.21894291765310
  H   -0.97356828433911     -0.80890994353949     -1.16171645863308
  H   -1.35694641306645      0.89232472259053     -0.90068708058746
  H   1.30449676715860      2.19524336133139     -0.39798884530016
