18
Coordinates from ORCA-job orca
  O   4.11199592664143      1.37686456415950     -1.30651221540971
  C   3.95122176764999      0.21753531064205     -0.99505769327744
  C   2.67591020632421     -0.36786266700236     -0.67082258665020
  C   1.62604520915647     -0.89910402554426     -0.39301801397292
  C   0.34210116858858     -1.49510540447316     -0.05445326380556
  C   -0.70494684968242     -0.48433669418531      0.42164550827563
  N   -1.24555773025844     -0.76003019424257      1.56484388804193
  C   -2.20146263802564      0.17071858897247      2.06286967317391
  C   -2.98972251070965      0.64313958760567      1.12039021824966
  N   -3.28516225426503      0.87378463364217     -0.06934667723252
  C   -2.08685004506986      1.33336622352482     -0.69230001707900
  C   -0.92780252753335      0.67428307265487     -0.47096709765151
  H   4.80133893812137     -0.49180200725377     -0.93610586353079
  H   0.46254920845817     -2.24377477836000      0.73331194731011
  H   -0.04183685342555     -2.01906017588410     -0.94115447549030
  H   -2.24125160518751      0.37956017978732      3.12035523774599
  H   -2.17143642361700      2.14608308181713     -1.40783190608978
  H   -0.07513298716579      0.94573770413953     -1.08584766260748
