17
Coordinates from ORCA-job orca
  C   2.39516965632098     -0.61398959829082      0.37124351959603
  C   1.56494508075799      0.65489396072517      0.11467944182435
  C   0.10981768842755      0.37104699717166     -0.05077453954484
  C   -0.71347276600014      0.56754526377672     -1.08196713021520
  C   -2.10176864476470      0.09662458839129     -0.72132376529022
  C   -1.88052126472522     -0.42273549857436      0.72355284886204
  O   -0.48928639876812     -0.19691115023733      1.04722964196962
  H   3.45020409350038     -0.36409920018911      0.51466790245801
  H   2.03997859346197     -1.13260993728175      1.26458914077937
  H   2.32109852917646     -1.30492633644255     -0.47375835798306
  H   1.92337946437091      1.17254207411938     -0.77937252506798
  H   1.69091358023453      1.34467691342422      0.95909278857066
  H   -0.43620850377540      1.00422192692775     -2.02988707209024
  H   -2.46631304073059     -0.69445375741221     -1.38741752282702
  H   -2.84418405238379      0.90312080925557     -0.75675937865718
  H   -2.07813343147815     -1.49421049864706      0.82289580668110
  H   -2.48561958362464      0.10926444328342      1.46331120093457
