21
Coordinates from ORCA-job orca
  O   4.94106431926044     -0.48959902459655      0.91144977731008
  C   4.17733409734506     -1.14857926373072      1.58236737887509
  C   2.74604658330643     -1.00114806658548      1.56536296244699
  C   1.54137995560411     -0.89744330945618      1.57085595474496
  C   0.09423838878773     -0.74692338724349      1.55382149491437
  C   -0.47260506426526     -0.33273276372517      0.19298727947381
  N   -1.40923506331078     -1.09516209210426     -0.26939246620311
  C   -2.01473853516768     -0.90410185115237     -1.49899125886272
  C   -2.32220390509700      0.26212400961744     -2.09410206352719
  C   -2.02614405319305      1.59043343751345     -1.44581649301662
  C   -0.53201544679303      1.66496871967595     -1.26688273315811
  C   0.13634567599653      0.81194013969077     -0.47139847764924
  H   4.54275032755158     -1.93253452696317      2.27651278979049
  H   -0.17720700273691      0.01297829709781      2.30087154385108
  H   -0.39674509550621     -1.67893499393788      1.84727116727391
  H   -2.31772103592714     -1.83533789196242     -1.97255113207766
  H   -2.80910572572366      0.24484683514176     -3.06430335181105
  H   -2.52746641385867      1.66110067947195     -0.47080816571276
  H   -2.39052091541504      2.41660761212501     -2.05875897665614
  H   0.01661076272065      2.44096702197693     -1.79454506750235
  H   1.19993714642188      0.95652941914665     -0.30260016250383
