23
Coordinates from ORCA-job orca
  C   -2.28017514070028     -0.63833617041426      1.30353444895743
  C   -1.88330542531283      0.73461747718290      0.75289221100239
  N   -1.20568114413850      0.68178631436951     -0.54493894295529
  C   -1.96474801565079      0.52495311082158     -1.66522112482927
  O   -3.17264615939115      0.38547786483395     -1.67475599385949
  C   0.23240576107402      0.86617005790298     -0.62954984304072
  C   1.05770452221041     -0.29979650143819     -0.06953012530209
  C   2.56089406419821     -0.06844493551529     -0.23891976084551
  C   3.41770107242524     -1.19592607765368      0.31290149297900
  O   4.62148362199509     -1.18894070917398      0.30740887033406
  H   -1.41165991306803     -1.28484431583868      1.45570044975660
  H   -2.96774911065361     -1.13156652926876      0.61368750878925
  H   -2.78801218073501     -0.51967791240235      2.26559013216831
  H   -1.21989355731062      1.25767138502501      1.44884301177184
  H   -2.78497576741990      1.34111682427429      0.62797953705505
  H   -1.35656776355960      0.54002276408045     -2.59220397376773
  H   0.48575813595444      1.01420072665755     -1.68490174834291
  H   0.51055995437949      1.79244750596973     -0.10815863939722
  H   0.82912232294410     -0.43601076488082      0.99392713074076
  H   0.75736664653582     -1.22501737614652     -0.57528826493829
  H   2.87942157597020      0.85623641458400      0.25823473574583
  H   2.82697993419789      0.05440954106050     -1.29649528371746
  H   2.85601656605540     -2.06054869402993      0.73926417169546
