20
Coordinates from ORCA-job orca
  N   -0.87772805694352     -1.03073918662416      2.59515176318790
  C   -1.03423173552923     -0.53700218774529      1.44207354121041
  C   -1.79205819777004      0.68479416621025      0.96693145169006
  C   -2.31085819929301      0.20288335153492     -0.39193531327162
  O   -1.35284753771225     -0.74874304211248     -0.87559415152679
  C   -0.50019866188338     -1.20768650140415      0.17643467546931
  N   0.89628020554279     -0.88722951634804      0.00252058700912
  C   1.25926701687516     -0.30111432443381     -1.05519986518864
  N   2.58905170615068     -0.00068821820963     -1.34631451606782
  O   3.51420859305581     -0.06417011543596     -0.37541347282819
  O   3.33983275562858      1.11902572281272      0.53109337361233
  H   -1.31671064688217     -0.44187422404346      3.30794582785076
  H   -1.09005789993758      1.51737849713914      0.84206196609583
  H   -2.57908780072866      0.99183998424979      1.65797176354094
  H   -3.28892666128581     -0.28491733708538     -0.28339147479617
  H   -2.40722156577095      0.99994457294211     -1.13460693059944
  H   -0.58470402059081     -2.29704847723590      0.26023133114501
  H   0.59402778519976     -0.01964192463006     -1.87742923043891
  H   2.73952099290830      0.76824399261918     -1.99201341812071
  H   4.20244292896632      1.53674576780023      0.39057909202664
