17
Coordinates from ORCA-job orca
  C   2.31561431108801      0.21296837326761     -0.48026751662499
  C   1.26058167626518     -0.53673978305548      0.33792832303041
  C   -0.11370728115426     -0.51892565265099     -0.32079215848083
  O   -1.01587067064391     -1.36573988556422      0.43378812061215
  C   -2.20906383870683     -0.76047002611766      0.69465537521054
  O   -3.14530103413207     -1.33357902218584      1.17148727967501
  C   -2.11025418795664      0.68328486433224      0.26751558184795
  O   -1.03552314383538      1.35864523949077      0.94660414096989
  C   -0.79821356327188      0.83815863347639     -0.36121316988013
  H   3.29255155300609      0.15301392260966      0.00555179648784
  H   2.42040115510354     -0.20930626538589     -1.48538034707727
  H   2.06820370071843      1.27389912525088     -0.58598443517520
  H   1.16239600484477     -0.10036597130433      1.33665456276105
  H   1.55576847590731     -1.58216071485621      0.47024443567877
  H   -0.05886303925133     -0.92869247839210     -1.33783875384970
  H   -3.00351042783642      1.25722933785791      0.05103542366173
  H   -0.58520969014461      1.55878130322728     -1.14398865884722
