14
Coordinates from ORCA-job orca
  C   1.74578293531660     -0.27256508947299     -0.75141317087953
  N   0.34237478820102     -0.66452515250820     -0.62537330459253
  C   -0.38843594909894      0.00480088442747      0.42243449869329
  C   -0.66130711528349      1.48968506833033      0.13781563992715
  O   -0.26481478819009      2.08664421595550     -0.82579122196567
  C   -1.74574744558672     -0.65892065322085      0.64470771622443
  O   -2.48428286231424     -0.38097449784420      1.55276184391719
  H   2.22674060749175     -0.91382224101387     -1.49351738510669
  H   2.31044737812702     -0.35441259753081      0.19339983609848
  H   1.80693024875795      0.75802662536239     -1.10277020535339
  H   0.28187727510203     -1.66782118518438     -0.48656244345420
  H   0.10856452305177      0.01537316638743      1.41707556334565
  H   -1.26796613097526      1.96912840692305      0.93496486256455
  H   -2.01016346459939     -1.41061695061086     -0.13185722941872
