22
Coordinates from ORCA-job orca
  O   5.53887079890571     -2.68790055011655     -0.97867631447899
  C   4.32533341984326     -2.65609353348174     -0.98580653738712
  C   3.51879802347650     -1.66352789795673     -0.34576907812630
  C   2.77923972870408     -0.86420829315068      0.17943161518382
  O   2.09302138537095      0.05073063179709      0.77385856817304
  C   0.64870908101495      0.00216631551640      0.70147380848979
  C   0.16344101855342      1.02786297271368      1.56397539823614
  C   -0.91319472627015      1.85652774325193      1.55450322548232
  N   -1.86495965977936      2.19794705898114      0.64173453082035
  C   -2.31630728621455      1.74708486864849     -0.58711123084200
  C   -2.43736185723546      0.52571512939816     -1.16123761689056
  C   -2.13235558868048     -0.82227709480205     -0.79792072785980
  C   -1.05048443303729     -1.44040134289026     -0.24836412422876
  N   0.17596533940328     -0.98694572273174      0.07753648198311
  H   3.73283243335913     -3.43239391648319     -1.51420345026703
  H   0.82928082309816      1.20496615879596      2.40268031552989
  H   -0.99515416810911      2.49478127826983      2.42912671396805
  H   -2.32783674369619      3.05505010134427      0.90257182242778
  H   -2.78508804628020      2.56532931767936     -1.12505509168608
  H   -3.01391218473963      0.58903158509967     -2.08276797735025
  H   -2.86647739372536     -1.52930473336101     -1.18036157434331
  H   -1.10235896396170     -2.52784407652205     -0.21961775683410
