22
Coordinates from ORCA-job orca
  C   3.39203950292324      0.36407992261398      0.86428354194578
  C   2.38224220724111      0.34465497290420     -0.24677792170140
  N   2.69750945976435      0.60199042815142     -1.44871904065702
  O   1.15361811085854      0.01526447722520      0.25055622764977
  C   0.05576676914687     -0.05538606386083     -0.65532151182532
  C   -1.20064525782695     -0.40905864094532      0.13528267374979
  C   -1.55104895572352      0.66185270749564      1.17237148483564
  C   -2.36078672001332     -0.65248671312818     -0.84154859833329
  O   -3.56105446297634     -1.04674574510187     -0.19702719425192
  H   3.43425550660387     -0.61589595028104      1.34922866421900
  H   4.37144675849265      0.62182427487791      0.46566112694412
  H   3.09758212751360      1.08902560456206      1.62890343326645
  H   1.90751942711054      0.54588238470970     -2.08916898691437
  H   -0.07151152301761      0.91121648077416     -1.16447435148942
  H   0.26002984848802     -0.81524602267037     -1.42264979091350
  H   -0.99826752397446     -1.35608878427033      0.65703902025098
  H   -0.73952543923199      0.79001339430788      1.89176660804900
  H   -1.73011078435269      1.62760058141262      0.68533513519980
  H   -2.46144616972983      0.38689796966336      1.70947501256789
  H   -2.06340434145842     -1.38928572137889     -1.60429337563262
  H   -2.60434642797471      0.27746575633402     -1.36806074263933
  H   -3.40986411186295     -1.89757331339533      0.22813758567995
